/*---------------------------------------------------------------------------*\
| =========                 |                                                 |
| \\      /  F ield         | OpenFOAM: The Open Source CFD Toolbox           |
|  \\    /   O peration     | Version:  v2006                                 |
|   \\  /    A nd           | Website:  www.openfoam.com                      |
|    \\/     M anipulation  |                                                 |
\*---------------------------------------------------------------------------*/
Build  : _b45f8f6f58-20200629 OPENFOAM=2006
Arch   : "LSB;label=32;scalar=64"
Exec   : simpleFoam
Date   : Feb 03 2026
Time   : 23:06:34
Host   : login1.csf3.man.alces.network
PID    : 3824682
I/O    : uncollated
Case   : /mnt/iusers01/mace01/h81475am/scratch/T3A
nProcs : 1
trapFpe: Floating point exception trapping enabled (FOAM_SIGFPE).
fileModificationChecking : Monitoring run-time modified files using timeStampMaster (fileModificationSkew 5, maxFileModificationPolls 20)
allowSystemOperations : Allowing user-supplied system call operations

// * * * * * * * * * * * * * * * * * * * * * * * * * * * * * * * * * * * * * //
Create time

Create mesh for time = 0


SIMPLE: convergence criteria
    field p	 tolerance 1e-05
    field U	 tolerance 1e-06
    field "(k|omega|gammaInt|ReThetat)"	 tolerance 0.0001

Reading field p

Reading field U

Reading/calculating face flux field phi

Selecting incompressible transport model Newtonian
Selecting turbulence model type RAS
Selecting RAS turbulence model kOmegaSSTLM
Selecting patchDistMethod meshWave
bounding k, min: 0 max: 0.047633 average: 0.047633
RAS
{
    RASModel        kOmegaSSTLM;
    turbulence      on;
    printCoeffs     on;
    alphaK1         0.85;
    alphaK2         1;
    alphaOmega1     0.5;
    alphaOmega2     0.856;
    gamma1          0.555556;
    gamma2          0.44;
    beta1           0.075;
    beta2           0.0828;
    betaStar        0.09;
    a1              0.31;
    b1              1;
    c1              10;
    F3              false;
    decayControl    false;
    kInf            0;
    omegaInf        0;
    ca1             2;
    ca2             0.06;
    ce1             1;
    ce2             50;
    cThetat         0.03;
    sigmaThetat     2;
}

No MRF models present

No finite volume options present

Starting time loop

wallShearStress wallShearStress:
    processing all wall patches

Reading set description:
    line

Reading set description:
    line

Time = 1

smoothSolver:  Solving for Ux, Initial residual = 1, Final residual = 0.0711019, No Iterations 5
smoothSolver:  Solving for Uy, Initial residual = 1, Final residual = 0.0991419, No Iterations 3
GAMG:  Solving for p, Initial residual = 1, Final residual = 0.0779311, No Iterations 28
time step continuity errors : sum local = 0.000109245, global = -3.65029e-06, cumulative = -3.65029e-06
smoothSolver:  Solving for omega, Initial residual = 0.0507415, Final residual = 0.00473037, No Iterations 3
smoothSolver:  Solving for k, Initial residual = 1, Final residual = 0.0723275, No Iterations 3
bounding k, min: 0 max: 0.047633 average: 0.045843
smoothSolver:  Solving for ReThetat, Initial residual = 1, Final residual = 0.0324837, No Iterations 1
smoothSolver:  Solving for gammaInt, Initial residual = 1, Final residual = 0.0178867, No Iterations 1
ExecutionTime = 0.63 s  ClockTime = 1 s

Time = 2

smoothSolver:  Solving for Ux, Initial residual = 0.18738, Final residual = 0.0137493, No Iterations 2
smoothSolver:  Solving for Uy, Initial residual = 0.0373877, Final residual = 0.00369335, No Iterations 2
GAMG:  Solving for p, Initial residual = 0.00283825, Final residual = 0.000243965, No Iterations 16
time step continuity errors : sum local = 0.00152971, global = 0.000213786, cumulative = 0.000210136
smoothSolver:  Solving for omega, Initial residual = 0.136687, Final residual = 0.000451511, No Iterations 1
smoothSolver:  Solving for k, Initial residual = 0.692841, Final residual = 0.0624568, No Iterations 1
bounding k, min: 0 max: 0.0877614 average: 0.0415817
smoothSolver:  Solving for ReThetat, Initial residual = 0.590047, Final residual = 0.0139549, No Iterations 1
smoothSolver:  Solving for gammaInt, Initial residual = 0.0569502, Final residual = 0.00349072, No Iterations 2
ExecutionTime = 0.69 s  ClockTime = 1 s

Time = 3

smoothSolver:  Solving for Ux, Initial residual = 0.032326, Final residual = 0.00305121, No Iterations 3
smoothSolver:  Solving for Uy, Initial residual = 0.0173924, Final residual = 0.000948691, No Iterations 3
GAMG:  Solving for p, Initial residual = 0.00734783, Final residual = 0.000698445, No Iterations 12
time step continuity errors : sum local = 0.00121543, global = 0.000272416, cumulative = 0.000482552
smoothSolver:  Solving for omega, Initial residual = 0.00777907, Final residual = 9.75535e-05, No Iterations 1
smoothSolver:  Solving for k, Initial residual = 0.297234, Final residual = 0.0284268, No Iterations 1
bounding k, min: 0 max: 0.11198 average: 0.0388842
smoothSolver:  Solving for ReThetat, Initial residual = 0.315378, Final residual = 0.00768474, No Iterations 1
smoothSolver:  Solving for gammaInt, Initial residual = 0.0160601, Final residual = 0.00128978, No Iterations 3
ExecutionTime = 0.74 s  ClockTime = 1 s

Time = 4

smoothSolver:  Solving for Ux, Initial residual = 0.0138433, Final residual = 0.00118402, No Iterations 4
smoothSolver:  Solving for Uy, Initial residual = 0.0115882, Final residual = 0.000741363, No Iterations 3
GAMG:  Solving for p, Initial residual = 0.0112236, Final residual = 0.00101805, No Iterations 10
time step continuity errors : sum local = 0.000651296, global = 0.000129332, cumulative = 0.000611885
smoothSolver:  Solving for omega, Initial residual = 0.0078415, Final residual = 6.44872e-05, No Iterations 1
smoothSolver:  Solving for k, Initial residual = 0.1603, Final residual = 0.00693828, No Iterations 2
bounding k, min: 0 max: 0.108219 average: 0.0365635
smoothSolver:  Solving for ReThetat, Initial residual = 0.209512, Final residual = 0.00553393, No Iterations 1
smoothSolver:  Solving for gammaInt, Initial residual = 0.00874162, Final residual = 0.000843375, No Iterations 3
ExecutionTime = 0.8 s  ClockTime = 1 s

Time = 5

smoothSolver:  Solving for Ux, Initial residual = 0.00867963, Final residual = 0.000546059, No Iterations 5
smoothSolver:  Solving for Uy, Initial residual = 0.00850028, Final residual = 0.000661893, No Iterations 3
GAMG:  Solving for p, Initial residual = 0.0166045, Final residual = 0.000863011, No Iterations 8
time step continuity errors : sum local = 0.000313069, global = 6.00202e-05, cumulative = 0.000671905
smoothSolver:  Solving for omega, Initial residual = 0.00312681, Final residual = 6.06872e-05, No Iterations 1
smoothSolver:  Solving for k, Initial residual = 0.102516, Final residual = 0.00555076, No Iterations 2
bounding k, min: 0 max: 0.102184 average: 0.0348285
smoothSolver:  Solving for ReThetat, Initial residual = 0.152123, Final residual = 0.00421831, No Iterations 1
smoothSolver:  Solving for gammaInt, Initial residual = 0.00517299, Final residual = 0.000333507, No Iterations 3
ExecutionTime = 0.86 s  ClockTime = 1 s

Time = 6

smoothSolver:  Solving for Ux, Initial residual = 0.00658051, Final residual = 0.000427374, No Iterations 5
smoothSolver:  Solving for Uy, Initial residual = 0.00686086, Final residual = 0.000620101, No Iterations 3
GAMG:  Solving for p, Initial residual = 0.0171666, Final residual = 0.00139825, No Iterations 7
time step continuity errors : sum local = 0.000469778, global = -0.000115844, cumulative = 0.00055606
smoothSolver:  Solving for omega, Initial residual = 0.00229857, Final residual = 4.07448e-05, No Iterations 1
smoothSolver:  Solving for k, Initial residual = 0.0722364, Final residual = 0.00479715, No Iterations 2
bounding k, min: 0 max: 0.100185 average: 0.0335034
smoothSolver:  Solving for ReThetat, Initial residual = 0.11732, Final residual = 0.00335767, No Iterations 1
smoothSolver:  Solving for gammaInt, Initial residual = 0.00530896, Final residual = 0.000496842, No Iterations 2
ExecutionTime = 0.9 s  ClockTime = 1 s

Time = 7

smoothSolver:  Solving for Ux, Initial residual = 0.00493265, Final residual = 0.000352159, No Iterations 5
smoothSolver:  Solving for Uy, Initial residual = 0.00556342, Final residual = 0.000325838, No Iterations 4
GAMG:  Solving for p, Initial residual = 0.014142, Final residual = 0.000821272, No Iterations 8
time step continuity errors : sum local = 0.000265191, global = 4.72937e-05, cumulative = 0.000603354
smoothSolver:  Solving for omega, Initial residual = 0.00114497, Final residual = 2.49607e-05, No Iterations 1
smoothSolver:  Solving for k, Initial residual = 0.0539159, Final residual = 0.00426641, No Iterations 2
bounding k, min: 0 max: 0.0989213 average: 0.0324429
smoothSolver:  Solving for ReThetat, Initial residual = 0.0942984, Final residual = 0.00276217, No Iterations 1
smoothSolver:  Solving for gammaInt, Initial residual = 0.00554526, Final residual = 0.000421002, No Iterations 2
ExecutionTime = 0.95 s  ClockTime = 1 s

Time = 8

smoothSolver:  Solving for Ux, Initial residual = 0.00413282, Final residual = 0.000296991, No Iterations 5
smoothSolver:  Solving for Uy, Initial residual = 0.00474643, Final residual = 0.000289338, No Iterations 4
GAMG:  Solving for p, Initial residual = 0.0130365, Final residual = 0.00100373, No Iterations 7
time step continuity errors : sum local = 0.000322665, global = -2.25866e-05, cumulative = 0.000580767
smoothSolver:  Solving for omega, Initial residual = 0.00074693, Final residual = 1.98921e-05, No Iterations 1
smoothSolver:  Solving for k, Initial residual = 0.0418877, Final residual = 0.00383028, No Iterations 2
bounding k, min: 0 max: 0.0983652 average: 0.0315769
smoothSolver:  Solving for ReThetat, Initial residual = 0.0779683, Final residual = 0.0023218, No Iterations 1
smoothSolver:  Solving for gammaInt, Initial residual = 0.00390017, Final residual = 0.00023228, No Iterations 2
ExecutionTime = 1.01 s  ClockTime = 1 s

Time = 9

smoothSolver:  Solving for Ux, Initial residual = 0.00352216, Final residual = 0.000257372, No Iterations 5
smoothSolver:  Solving for Uy, Initial residual = 0.00412229, Final residual = 0.000252553, No Iterations 4
GAMG:  Solving for p, Initial residual = 0.0128682, Final residual = 0.000925707, No Iterations 6
time step continuity errors : sum local = 0.000262636, global = 9.60019e-06, cumulative = 0.000590368
smoothSolver:  Solving for omega, Initial residual = 0.000399721, Final residual = 1.04069e-05, No Iterations 1
smoothSolver:  Solving for k, Initial residual = 0.0336913, Final residual = 0.00203735, No Iterations 3
bounding k, min: 0 max: 0.0976857 average: 0.0307687
smoothSolver:  Solving for ReThetat, Initial residual = 0.0663137, Final residual = 0.00204225, No Iterations 1
smoothSolver:  Solving for gammaInt, Initial residual = 0.00697328, Final residual = 0.000415445, No Iterations 2
ExecutionTime = 1.05 s  ClockTime = 1 s

Time = 10

smoothSolver:  Solving for Ux, Initial residual = 0.00293661, Final residual = 0.000223442, No Iterations 5
smoothSolver:  Solving for Uy, Initial residual = 0.00368635, Final residual = 0.000216074, No Iterations 4
GAMG:  Solving for p, Initial residual = 0.0126519, Final residual = 0.0010806, No Iterations 6
time step continuity errors : sum local = 0.000262732, global = -4.98342e-05, cumulative = 0.000540533
smoothSolver:  Solving for omega, Initial residual = 0.000258132, Final residual = 1.04562e-05, No Iterations 1
smoothSolver:  Solving for k, Initial residual = 0.0276834, Final residual = 0.00180625, No Iterations 3
bounding k, min: 0 max: 0.0968587 average: 0.0300813
smoothSolver:  Solving for ReThetat, Initial residual = 0.0580927, Final residual = 0.00179674, No Iterations 1
smoothSolver:  Solving for gammaInt, Initial residual = 0.00362217, Final residual = 0.00019757, No Iterations 2
ExecutionTime = 1.1 s  ClockTime = 1 s

Time = 11

smoothSolver:  Solving for Ux, Initial residual = 0.00260557, Final residual = 0.000199667, No Iterations 5
smoothSolver:  Solving for Uy, Initial residual = 0.00341496, Final residual = 0.000184536, No Iterations 4
GAMG:  Solving for p, Initial residual = 0.0147771, Final residual = 0.00137411, No Iterations 5
time step continuity errors : sum local = 0.000255216, global = 4.57272e-06, cumulative = 0.000545106
smoothSolver:  Solving for omega, Initial residual = 0.000141271, Final residual = 6.10026e-06, No Iterations 1
smoothSolver:  Solving for k, Initial residual = 0.0231581, Final residual = 0.00158497, No Iterations 3
bounding k, min: 0 max: 0.0951377 average: 0.029486
smoothSolver:  Solving for ReThetat, Initial residual = 0.053499, Final residual = 0.00159237, No Iterations 1
smoothSolver:  Solving for gammaInt, Initial residual = 0.00665743, Final residual = 0.000293025, No Iterations 2
ExecutionTime = 1.15 s  ClockTime = 1 s

Time = 12

smoothSolver:  Solving for Ux, Initial residual = 0.00224491, Final residual = 0.000177219, No Iterations 5
smoothSolver:  Solving for Uy, Initial residual = 0.00320195, Final residual = 0.00030148, No Iterations 3
GAMG:  Solving for p, Initial residual = 0.0156708, Final residual = 0.00133287, No Iterations 6
time step continuity errors : sum local = 0.000187593, global = -3.89375e-05, cumulative = 0.000506169
smoothSolver:  Solving for omega, Initial residual = 9.6576e-05, Final residual = 6.52289e-06, No Iterations 1
smoothSolver:  Solving for k, Initial residual = 0.0196578, Final residual = 0.00138404, No Iterations 3
bounding k, min: 0 max: 0.0924107 average: 0.0289626
smoothSolver:  Solving for ReThetat, Initial residual = 0.0484819, Final residual = 0.00141564, No Iterations 1
smoothSolver:  Solving for gammaInt, Initial residual = 0.00414554, Final residual = 0.000181373, No Iterations 2
ExecutionTime = 1.21 s  ClockTime = 1 s

Time = 13

smoothSolver:  Solving for Ux, Initial residual = 0.00201195, Final residual = 0.000161912, No Iterations 5
smoothSolver:  Solving for Uy, Initial residual = 0.00303669, Final residual = 0.000267607, No Iterations 3
GAMG:  Solving for p, Initial residual = 0.0200196, Final residual = 0.00170298, No Iterations 5
time step continuity errors : sum local = 0.000166239, global = -3.55816e-06, cumulative = 0.000502611
smoothSolver:  Solving for omega, Initial residual = 5.45857e-05, Final residual = 4.4666e-06, No Iterations 1
smoothSolver:  Solving for k, Initial residual = 0.0169245, Final residual = 0.00118866, No Iterations 3
bounding k, min: 0 max: 0.0890974 average: 0.0284962
smoothSolver:  Solving for ReThetat, Initial residual = 0.0434465, Final residual = 0.00126351, No Iterations 1
smoothSolver:  Solving for gammaInt, Initial residual = 0.00567626, Final residual = 0.000189212, No Iterations 2
ExecutionTime = 1.25 s  ClockTime = 1 s

Time = 14

smoothSolver:  Solving for Ux, Initial residual = 0.00180257, Final residual = 0.000145975, No Iterations 5
smoothSolver:  Solving for Uy, Initial residual = 0.00287237, Final residual = 0.000240369, No Iterations 3
GAMG:  Solving for p, Initial residual = 0.0249363, Final residual = 0.00223283, No Iterations 5
time step continuity errors : sum local = 0.000146279, global = -8.50774e-07, cumulative = 0.00050176
smoothSolver:  Solving for omega, Initial residual = 4.12445e-05, Final residual = 1.59505e-06, No Iterations 2
smoothSolver:  Solving for k, Initial residual = 0.0147713, Final residual = 0.00101784, No Iterations 3
bounding k, min: 0 max: 0.085985 average: 0.0280664
smoothSolver:  Solving for ReThetat, Initial residual = 0.0385121, Final residual = 0.00113003, No Iterations 1
smoothSolver:  Solving for gammaInt, Initial residual = 0.00664399, Final residual = 0.000218422, No Iterations 2
ExecutionTime = 1.3 s  ClockTime = 1 s

Time = 15

smoothSolver:  Solving for Ux, Initial residual = 0.00162307, Final residual = 0.000134901, No Iterations 5
smoothSolver:  Solving for Uy, Initial residual = 0.00272333, Final residual = 0.000220115, No Iterations 3
GAMG:  Solving for p, Initial residual = 0.0397899, Final residual = 0.00316159, No Iterations 6
time step continuity errors : sum local = 0.000111716, global = 1.31281e-05, cumulative = 0.000514888
smoothSolver:  Solving for omega, Initial residual = 2.20552e-05, Final residual = 1.09624e-06, No Iterations 2
smoothSolver:  Solving for k, Initial residual = 0.0130631, Final residual = 0.000860063, No Iterations 3
bounding k, min: 0 max: 0.0835231 average: 0.027665
smoothSolver:  Solving for ReThetat, Initial residual = 0.0340266, Final residual = 0.00101136, No Iterations 1
smoothSolver:  Solving for gammaInt, Initial residual = 0.00710385, Final residual = 0.000226163, No Iterations 2
ExecutionTime = 1.34 s  ClockTime = 1 s

Time = 16

smoothSolver:  Solving for Ux, Initial residual = 0.00148997, Final residual = 0.000123216, No Iterations 5
smoothSolver:  Solving for Uy, Initial residual = 0.00256545, Final residual = 0.00020654, No Iterations 3
GAMG:  Solving for p, Initial residual = 0.0556078, Final residual = 0.00407441, No Iterations 7
time step continuity errors : sum local = 8.9528e-05, global = -2.08621e-05, cumulative = 0.000494026
smoothSolver:  Solving for omega, Initial residual = 1.97153e-05, Final residual = 1.05262e-06, No Iterations 2
smoothSolver:  Solving for k, Initial residual = 0.0116537, Final residual = 0.000712842, No Iterations 3
bounding k, min: 0 max: 0.0819524 average: 0.0272937
smoothSolver:  Solving for ReThetat, Initial residual = 0.029959, Final residual = 0.000906417, No Iterations 1
smoothSolver:  Solving for gammaInt, Initial residual = 0.00470197, Final residual = 0.000136246, No Iterations 2
ExecutionTime = 1.4 s  ClockTime = 1 s

Time = 17

smoothSolver:  Solving for Ux, Initial residual = 0.0013727, Final residual = 0.0001148, No Iterations 5
smoothSolver:  Solving for Uy, Initial residual = 0.00243285, Final residual = 0.000197375, No Iterations 3
GAMG:  Solving for p, Initial residual = 0.0235349, Final residual = 0.00227553, No Iterations 5
time step continuity errors : sum local = 0.00010426, global = -1.26984e-05, cumulative = 0.000481327
smoothSolver:  Solving for omega, Initial residual = 1.16955e-05, Final residual = 8.96093e-07, No Iterations 2
smoothSolver:  Solving for k, Initial residual = 0.0104438, Final residual = 0.000576262, No Iterations 3
bounding k, min: 0 max: 0.0812555 average: 0.0269526
smoothSolver:  Solving for ReThetat, Initial residual = 0.0264238, Final residual = 0.000814517, No Iterations 1
smoothSolver:  Solving for gammaInt, Initial residual = 0.00596584, Final residual = 0.00017712, No Iterations 2
ExecutionTime = 1.45 s  ClockTime = 1 s

Time = 18

smoothSolver:  Solving for Ux, Initial residual = 0.00128036, Final residual = 0.000105717, No Iterations 5
smoothSolver:  Solving for Uy, Initial residual = 0.00228248, Final residual = 0.000190872, No Iterations 3
GAMG:  Solving for p, Initial residual = 0.015539, Final residual = 0.00154011, No Iterations 6
time step continuity errors : sum local = 9.68122e-05, global = 2.34507e-05, cumulative = 0.000504778
smoothSolver:  Solving for omega, Initial residual = 1.19001e-05, Final residual = 8.44351e-07, No Iterations 2
smoothSolver:  Solving for k, Initial residual = 0.00941858, Final residual = 0.000461314, No Iterations 3
bounding k, min: 0 max: 0.0814702 average: 0.0266394
smoothSolver:  Solving for ReThetat, Initial residual = 0.0233375, Final residual = 0.000733532, No Iterations 1
smoothSolver:  Solving for gammaInt, Initial residual = 0.00394409, Final residual = 0.000104496, No Iterations 2
ExecutionTime = 1.5 s  ClockTime = 1 s

Time = 19

smoothSolver:  Solving for Ux, Initial residual = 0.00117918, Final residual = 9.86016e-05, No Iterations 5
smoothSolver:  Solving for Uy, Initial residual = 0.00215526, Final residual = 0.000185726, No Iterations 3
GAMG:  Solving for p, Initial residual = 0.0107966, Final residual = 0.000864555, No Iterations 7
time step continuity errors : sum local = 6.79096e-05, global = -1.71916e-05, cumulative = 0.000487586
smoothSolver:  Solving for omega, Initial residual = 8.09348e-06, Final residual = 7.51885e-07, No Iterations 2
smoothSolver:  Solving for k, Initial residual = 0.00850337, Final residual = 0.00078767, No Iterations 2
bounding k, min: 0 max: 0.0821311 average: 0.0263868
smoothSolver:  Solving for ReThetat, Initial residual = 0.0204703, Final residual = 0.000644053, No Iterations 1
smoothSolver:  Solving for gammaInt, Initial residual = 0.00417549, Final residual = 0.000370172, No Iterations 1
ExecutionTime = 1.55 s  ClockTime = 2 s

Time = 20

smoothSolver:  Solving for Ux, Initial residual = 0.00110437, Final residual = 9.1448e-05, No Iterations 5
smoothSolver:  Solving for Uy, Initial residual = 0.0020218, Final residual = 0.000180958, No Iterations 3
GAMG:  Solving for p, Initial residual = 0.00860995, Final residual = 0.000806666, No Iterations 6
time step continuity errors : sum local = 7.15973e-05, global = 1.36534e-05, cumulative = 0.00050124
smoothSolver:  Solving for omega, Initial residual = 8.50306e-06, Final residual = 6.95879e-07, No Iterations 2
smoothSolver:  Solving for k, Initial residual = 0.00768875, Final residual = 0.000639248, No Iterations 2
bounding k, min: 0 max: 0.0828289 average: 0.0261589
smoothSolver:  Solving for ReThetat, Initial residual = 0.0180873, Final residual = 0.000574303, No Iterations 1
smoothSolver:  Solving for gammaInt, Initial residual = 0.00497055, Final residual = 0.000133994, No Iterations 2
ExecutionTime = 1.6 s  ClockTime = 2 s

Time = 21

smoothSolver:  Solving for Ux, Initial residual = 0.00102371, Final residual = 8.54175e-05, No Iterations 5
smoothSolver:  Solving for Uy, Initial residual = 0.00191204, Final residual = 0.000175324, No Iterations 3
GAMG:  Solving for p, Initial residual = 0.00716635, Final residual = 0.000498406, No Iterations 7
time step continuity errors : sum local = 4.73989e-05, global = -1.14146e-05, cumulative = 0.000489825
smoothSolver:  Solving for omega, Initial residual = 6.46384e-06, Final residual = 6.27684e-07, No Iterations 2
smoothSolver:  Solving for k, Initial residual = 0.006979, Final residual = 0.000527621, No Iterations 2
bounding k, min: 0 max: 0.0838087 average: 0.0259475
smoothSolver:  Solving for ReThetat, Initial residual = 0.0159443, Final residual = 0.000515248, No Iterations 1
smoothSolver:  Solving for gammaInt, Initial residual = 0.00325339, Final residual = 0.000267288, No Iterations 1
ExecutionTime = 1.64 s  ClockTime = 2 s

Time = 22

smoothSolver:  Solving for Ux, Initial residual = 0.000958, Final residual = 7.9561e-05, No Iterations 5
smoothSolver:  Solving for Uy, Initial residual = 0.00181511, Final residual = 0.00016848, No Iterations 3
GAMG:  Solving for p, Initial residual = 0.00644052, Final residual = 0.000473881, No Iterations 7
time step continuity errors : sum local = 4.56938e-05, global = -1.1784e-05, cumulative = 0.000478041
smoothSolver:  Solving for omega, Initial residual = 6.73203e-06, Final residual = 5.77898e-07, No Iterations 2
smoothSolver:  Solving for k, Initial residual = 0.00629305, Final residual = 0.000429482, No Iterations 2
bounding k, min: 0 max: 0.0846591 average: 0.0257581
smoothSolver:  Solving for ReThetat, Initial residual = 0.0140684, Final residual = 0.00046476, No Iterations 1
smoothSolver:  Solving for gammaInt, Initial residual = 0.00312006, Final residual = 0.000269751, No Iterations 1
ExecutionTime = 1.7 s  ClockTime = 2 s

Time = 23

smoothSolver:  Solving for Ux, Initial residual = 0.000894131, Final residual = 7.44238e-05, No Iterations 5
smoothSolver:  Solving for Uy, Initial residual = 0.00173039, Final residual = 0.000160372, No Iterations 3
GAMG:  Solving for p, Initial residual = 0.00600266, Final residual = 0.000500515, No Iterations 7
time step continuity errors : sum local = 4.69635e-05, global = -1.21332e-05, cumulative = 0.000465908
smoothSolver:  Solving for omega, Initial residual = 5.67264e-06, Final residual = 5.26928e-07, No Iterations 2
smoothSolver:  Solving for k, Initial residual = 0.00566238, Final residual = 0.000352304, No Iterations 2
bounding k, min: 0 max: 0.0854394 average: 0.0255889
smoothSolver:  Solving for ReThetat, Initial residual = 0.0123794, Final residual = 0.000419848, No Iterations 1
smoothSolver:  Solving for gammaInt, Initial residual = 0.00305026, Final residual = 0.000237468, No Iterations 1
ExecutionTime = 1.75 s  ClockTime = 2 s

Time = 24

smoothSolver:  Solving for Ux, Initial residual = 0.000839997, Final residual = 6.95546e-05, No Iterations 5
smoothSolver:  Solving for Uy, Initial residual = 0.00166491, Final residual = 0.000151225, No Iterations 3
GAMG:  Solving for p, Initial residual = 0.00606555, Final residual = 0.000501909, No Iterations 8
time step continuity errors : sum local = 4.33092e-05, global = -1.05565e-05, cumulative = 0.000455351
smoothSolver:  Solving for omega, Initial residual = 5.62212e-06, Final residual = 4.85081e-07, No Iterations 2
smoothSolver:  Solving for k, Initial residual = 0.00507462, Final residual = 0.000292244, No Iterations 2
bounding k, min: 0 max: 0.0861466 average: 0.0254386
smoothSolver:  Solving for ReThetat, Initial residual = 0.0108517, Final residual = 0.00037978, No Iterations 1
smoothSolver:  Solving for gammaInt, Initial residual = 0.00367634, Final residual = 0.000345444, No Iterations 1
ExecutionTime = 1.79 s  ClockTime = 2 s

Time = 25

smoothSolver:  Solving for Ux, Initial residual = 0.000789746, Final residual = 6.51871e-05, No Iterations 5
smoothSolver:  Solving for Uy, Initial residual = 0.00159698, Final residual = 0.000141243, No Iterations 3
GAMG:  Solving for p, Initial residual = 0.00639821, Final residual = 0.000625801, No Iterations 8
time step continuity errors : sum local = 4.80711e-05, global = -1.11661e-05, cumulative = 0.000444185
smoothSolver:  Solving for omega, Initial residual = 5.023e-06, Final residual = 4.45665e-07, No Iterations 2
smoothSolver:  Solving for k, Initial residual = 0.00452993, Final residual = 0.00024671, No Iterations 2
bounding k, min: 0 max: 0.0867627 average: 0.0253052
smoothSolver:  Solving for ReThetat, Initial residual = 0.00946534, Final residual = 0.000343698, No Iterations 1
smoothSolver:  Solving for gammaInt, Initial residual = 0.00257134, Final residual = 0.000233847, No Iterations 1
ExecutionTime = 1.84 s  ClockTime = 2 s

Time = 26

smoothSolver:  Solving for Ux, Initial residual = 0.000744927, Final residual = 6.10668e-05, No Iterations 5
smoothSolver:  Solving for Uy, Initial residual = 0.0015311, Final residual = 0.000130858, No Iterations 3
GAMG:  Solving for p, Initial residual = 0.00706765, Final residual = 0.000601685, No Iterations 10
time step continuity errors : sum local = 3.94492e-05, global = -1.02202e-05, cumulative = 0.000433965
smoothSolver:  Solving for omega, Initial residual = 4.79162e-06, Final residual = 4.12303e-07, No Iterations 2
smoothSolver:  Solving for k, Initial residual = 0.00402229, Final residual = 0.000212697, No Iterations 2
bounding k, min: 0 max: 0.087272 average: 0.0251879
smoothSolver:  Solving for ReThetat, Initial residual = 0.00822106, Final residual = 0.000311379, No Iterations 1
smoothSolver:  Solving for gammaInt, Initial residual = 0.00177181, Final residual = 0.000131789, No Iterations 1
ExecutionTime = 1.89 s  ClockTime = 2 s

Time = 27

smoothSolver:  Solving for Ux, Initial residual = 0.000703623, Final residual = 5.73421e-05, No Iterations 5
smoothSolver:  Solving for Uy, Initial residual = 0.00145657, Final residual = 0.000120292, No Iterations 3
GAMG:  Solving for p, Initial residual = 0.00836237, Final residual = 0.000747456, No Iterations 10
time step continuity errors : sum local = 3.93564e-05, global = -1.02712e-05, cumulative = 0.000423694
smoothSolver:  Solving for omega, Initial residual = 4.38671e-06, Final residual = 3.82329e-07, No Iterations 2
smoothSolver:  Solving for k, Initial residual = 0.00355387, Final residual = 0.000187019, No Iterations 2
bounding k, min: 0 max: 0.0876693 average: 0.0250868
smoothSolver:  Solving for ReThetat, Initial residual = 0.00710246, Final residual = 0.000282529, No Iterations 1
smoothSolver:  Solving for gammaInt, Initial residual = 0.00148647, Final residual = 0.000109101, No Iterations 1
ExecutionTime = 1.94 s  ClockTime = 2 s

Time = 28

smoothSolver:  Solving for Ux, Initial residual = 0.000666654, Final residual = 5.38404e-05, No Iterations 5
smoothSolver:  Solving for Uy, Initial residual = 0.0013833, Final residual = 0.000109926, No Iterations 3
GAMG:  Solving for p, Initial residual = 0.0107093, Final residual = 0.000913932, No Iterations 10
time step continuity errors : sum local = 3.57964e-05, global = -1.13073e-05, cumulative = 0.000412387
smoothSolver:  Solving for omega, Initial residual = 4.12608e-06, Final residual = 3.56378e-07, No Iterations 2
smoothSolver:  Solving for k, Initial residual = 0.00312642, Final residual = 0.000167807, No Iterations 2
bounding k, min: 0 max: 0.0879603 average: 0.0250011
smoothSolver:  Solving for ReThetat, Initial residual = 0.00611057, Final residual = 0.000257062, No Iterations 1
smoothSolver:  Solving for gammaInt, Initial residual = 0.00109315, Final residual = 7.94496e-05, No Iterations 1
ExecutionTime = 2 s  ClockTime = 2 s

Time = 29

smoothSolver:  Solving for Ux, Initial residual = 0.000631015, Final residual = 5.06654e-05, No Iterations 5
smoothSolver:  Solving for Uy, Initial residual = 0.00130043, Final residual = 9.9904e-05, No Iterations 3
GAMG:  Solving for p, Initial residual = 0.0157878, Final residual = 0.00145126, No Iterations 10
time step continuity errors : sum local = 3.68328e-05, global = -1.20301e-05, cumulative = 0.000400357
smoothSolver:  Solving for omega, Initial residual = 3.812e-06, Final residual = 3.32715e-07, No Iterations 2
smoothSolver:  Solving for k, Initial residual = 0.00273955, Final residual = 0.000153395, No Iterations 2
bounding k, min: 0 max: 0.0881595 average: 0.0249304
smoothSolver:  Solving for ReThetat, Initial residual = 0.00526639, Final residual = 0.000239168, No Iterations 1
smoothSolver:  Solving for gammaInt, Initial residual = 0.000722254, Final residual = 5.43322e-05, No Iterations 1
ExecutionTime = 2.06 s  ClockTime = 2 s

Time = 30

smoothSolver:  Solving for Ux, Initial residual = 0.000599873, Final residual = 4.76902e-05, No Iterations 5
smoothSolver:  Solving for Uy, Initial residual = 0.00122535, Final residual = 9.08267e-05, No Iterations 3
GAMG:  Solving for p, Initial residual = 0.0276623, Final residual = 0.00240191, No Iterations 10
time step continuity errors : sum local = 3.32657e-05, global = -1.26492e-05, cumulative = 0.000387707
smoothSolver:  Solving for omega, Initial residual = 3.55821e-06, Final residual = 3.1128e-07, No Iterations 2
smoothSolver:  Solving for k, Initial residual = 0.00239286, Final residual = 0.000142486, No Iterations 2
bounding k, min: 0 max: 0.0882846 average: 0.024874
smoothSolver:  Solving for ReThetat, Initial residual = 0.00454481, Final residual = 0.000226802, No Iterations 1
smoothSolver:  Solving for gammaInt, Initial residual = 0.000645721, Final residual = 4.3157e-05, No Iterations 1
ExecutionTime = 2.11 s  ClockTime = 2 s

Time = 31

smoothSolver:  Solving for Ux, Initial residual = 0.000568277, Final residual = 4.49813e-05, No Iterations 5
smoothSolver:  Solving for Uy, Initial residual = 0.00114594, Final residual = 8.2588e-05, No Iterations 3
GAMG:  Solving for p, Initial residual = 0.0129948, Final residual = 0.00124613, No Iterations 10
time step continuity errors : sum local = 3.48264e-05, global = -1.22399e-05, cumulative = 0.000375467
smoothSolver:  Solving for omega, Initial residual = 3.29401e-06, Final residual = 2.91369e-07, No Iterations 2
smoothSolver:  Solving for k, Initial residual = 0.00208513, Final residual = 0.000134587, No Iterations 2
bounding k, min: 0 max: 0.0883543 average: 0.0248312
smoothSolver:  Solving for ReThetat, Initial residual = 0.00394403, Final residual = 0.000216021, No Iterations 1
smoothSolver:  Solving for gammaInt, Initial residual = 0.000925891, Final residual = 5.58978e-05, No Iterations 1
ExecutionTime = 2.16 s  ClockTime = 2 s

Time = 32

smoothSolver:  Solving for Ux, Initial residual = 0.000541526, Final residual = 4.24761e-05, No Iterations 5
smoothSolver:  Solving for Uy, Initial residual = 0.00107327, Final residual = 7.56396e-05, No Iterations 3
GAMG:  Solving for p, Initial residual = 0.00838907, Final residual = 0.000775312, No Iterations 10
time step continuity errors : sum local = 3.22285e-05, global = -1.15529e-05, cumulative = 0.000363914
smoothSolver:  Solving for omega, Initial residual = 3.06013e-06, Final residual = 2.72942e-07, No Iterations 2
smoothSolver:  Solving for k, Initial residual = 0.00181563, Final residual = 0.00012904, No Iterations 2
bounding k, min: 0 max: 0.0883844 average: 0.0248006
smoothSolver:  Solving for ReThetat, Initial residual = 0.00344571, Final residual = 0.000205592, No Iterations 1
smoothSolver:  Solving for gammaInt, Initial residual = 0.00114155, Final residual = 6.4725e-05, No Iterations 1
ExecutionTime = 2.22 s  ClockTime = 2 s

Time = 33

smoothSolver:  Solving for Ux, Initial residual = 0.000513938, Final residual = 4.02299e-05, No Iterations 5
smoothSolver:  Solving for Uy, Initial residual = 0.000998461, Final residual = 7.02528e-05, No Iterations 3
GAMG:  Solving for p, Initial residual = 0.0060226, Final residual = 0.000594356, No Iterations 10
time step continuity errors : sum local = 3.25259e-05, global = -1.0849e-05, cumulative = 0.000353065
smoothSolver:  Solving for omega, Initial residual = 2.82959e-06, Final residual = 2.55534e-07, No Iterations 2
smoothSolver:  Solving for k, Initial residual = 0.00158411, Final residual = 0.000125401, No Iterations 2
bounding k, min: 0 max: 0.0883879 average: 0.0247807
smoothSolver:  Solving for ReThetat, Initial residual = 0.00303909, Final residual = 0.000195242, No Iterations 1
smoothSolver:  Solving for gammaInt, Initial residual = 0.00120628, Final residual = 4.47678e-05, No Iterations 1
ExecutionTime = 2.28 s  ClockTime = 2 s

Time = 34

smoothSolver:  Solving for Ux, Initial residual = 0.00049149, Final residual = 3.81397e-05, No Iterations 5
smoothSolver:  Solving for Uy, Initial residual = 0.000930739, Final residual = 6.62946e-05, No Iterations 3
GAMG:  Solving for p, Initial residual = 0.00472437, Final residual = 0.000433738, No Iterations 10
time step continuity errors : sum local = 2.92319e-05, global = -9.78477e-06, cumulative = 0.000343281
smoothSolver:  Solving for omega, Initial residual = 2.61807e-06, Final residual = 2.39039e-07, No Iterations 2
smoothSolver:  Solving for k, Initial residual = 0.00138462, Final residual = 0.000123482, No Iterations 2
bounding k, min: 0 max: 0.088374 average: 0.0247713
smoothSolver:  Solving for ReThetat, Initial residual = 0.00271852, Final residual = 0.000185446, No Iterations 1
smoothSolver:  Solving for gammaInt, Initial residual = 0.00137048, Final residual = 3.79837e-05, No Iterations 1
ExecutionTime = 2.33 s  ClockTime = 2 s

Time = 35

smoothSolver:  Solving for Ux, Initial residual = 0.000467459, Final residual = 3.61924e-05, No Iterations 5
smoothSolver:  Solving for Uy, Initial residual = 0.000866797, Final residual = 6.34496e-05, No Iterations 3
GAMG:  Solving for p, Initial residual = 0.00380269, Final residual = 0.00036054, No Iterations 10
time step continuity errors : sum local = 2.85313e-05, global = -8.77779e-06, cumulative = 0.000334503
smoothSolver:  Solving for omega, Initial residual = 2.41577e-06, Final residual = 2.23318e-07, No Iterations 2
smoothSolver:  Solving for k, Initial residual = 0.00121605, Final residual = 6.16786e-05, No Iterations 3
bounding k, min: 0 max: 0.0883491 average: 0.0247737
smoothSolver:  Solving for ReThetat, Initial residual = 0.00247053, Final residual = 0.000177665, No Iterations 1
smoothSolver:  Solving for gammaInt, Initial residual = 0.00206894, Final residual = 5.0059e-05, No Iterations 1
ExecutionTime = 2.38 s  ClockTime = 2 s

Time = 36

smoothSolver:  Solving for Ux, Initial residual = 0.000447447, Final residual = 3.44065e-05, No Iterations 5
smoothSolver:  Solving for Uy, Initial residual = 0.000809222, Final residual = 6.14737e-05, No Iterations 3
GAMG:  Solving for p, Initial residual = 0.00325816, Final residual = 0.000276878, No Iterations 10
time step continuity errors : sum local = 2.49327e-05, global = -8.02952e-06, cumulative = 0.000326473
smoothSolver:  Solving for omega, Initial residual = 2.23152e-06, Final residual = 2.0834e-07, No Iterations 2
smoothSolver:  Solving for k, Initial residual = 0.00107309, Final residual = 6.17053e-05, No Iterations 3
bounding k, min: 0 max: 0.0883181 average: 0.0247882
smoothSolver:  Solving for ReThetat, Initial residual = 0.00226135, Final residual = 0.00016914, No Iterations 1
smoothSolver:  Solving for gammaInt, Initial residual = 0.00293419, Final residual = 8.56759e-05, No Iterations 1
ExecutionTime = 2.43 s  ClockTime = 2 s

Time = 37

smoothSolver:  Solving for Ux, Initial residual = 0.000426216, Final residual = 3.27025e-05, No Iterations 5
smoothSolver:  Solving for Uy, Initial residual = 0.000758413, Final residual = 6.01415e-05, No Iterations 3
GAMG:  Solving for p, Initial residual = 0.00277503, Final residual = 0.000234677, No Iterations 10
time step continuity errors : sum local = 2.34433e-05, global = -6.74675e-06, cumulative = 0.000319727
smoothSolver:  Solving for omega, Initial residual = 2.04997e-06, Final residual = 1.93411e-07, No Iterations 2
smoothSolver:  Solving for k, Initial residual = 0.000965091, Final residual = 6.34217e-05, No Iterations 3
bounding k, min: 0 max: 0.0882839 average: 0.0248151
smoothSolver:  Solving for ReThetat, Initial residual = 0.00209126, Final residual = 0.000160982, No Iterations 1
smoothSolver:  Solving for gammaInt, Initial residual = 0.00583585, Final residual = 0.000187675, No Iterations 1
ExecutionTime = 2.5 s  ClockTime = 2 s

Time = 38

smoothSolver:  Solving for Ux, Initial residual = 0.000407833, Final residual = 3.11369e-05, No Iterations 5
smoothSolver:  Solving for Uy, Initial residual = 0.000713835, Final residual = 5.92207e-05, No Iterations 3
GAMG:  Solving for p, Initial residual = 0.00244888, Final residual = 0.00019771, No Iterations 10
time step continuity errors : sum local = 2.14651e-05, global = -5.79426e-06, cumulative = 0.000313932
smoothSolver:  Solving for omega, Initial residual = 1.87571e-06, Final residual = 1.78584e-07, No Iterations 2
smoothSolver:  Solving for k, Initial residual = 0.000906968, Final residual = 6.83808e-05, No Iterations 3
bounding k, min: 0 max: 0.0882481 average: 0.024856
smoothSolver:  Solving for ReThetat, Initial residual = 0.00193314, Final residual = 0.000153335, No Iterations 1
smoothSolver:  Solving for gammaInt, Initial residual = 0.00447137, Final residual = 6.37913e-05, No Iterations 1
ExecutionTime = 2.55 s  ClockTime = 3 s

Time = 39

smoothSolver:  Solving for Ux, Initial residual = 0.000388949, Final residual = 2.96096e-05, No Iterations 5
smoothSolver:  Solving for Uy, Initial residual = 0.000677391, Final residual = 5.85004e-05, No Iterations 3
GAMG:  Solving for p, Initial residual = 0.00213583, Final residual = 0.000172246, No Iterations 10
time step continuity errors : sum local = 2.00043e-05, global = -4.83224e-06, cumulative = 0.0003091
smoothSolver:  Solving for omega, Initial residual = 1.70208e-06, Final residual = 1.63276e-07, No Iterations 2
smoothSolver:  Solving for k, Initial residual = 0.000844546, Final residual = 7.15884e-05, No Iterations 3
bounding k, min: 0 max: 0.0882117 average: 0.0249074
smoothSolver:  Solving for ReThetat, Initial residual = 0.00178021, Final residual = 0.000146551, No Iterations 1
smoothSolver:  Solving for gammaInt, Initial residual = 0.00587541, Final residual = 0.000201498, No Iterations 1
ExecutionTime = 2.6 s  ClockTime = 3 s

Time = 40

smoothSolver:  Solving for Ux, Initial residual = 0.00037193, Final residual = 2.81828e-05, No Iterations 5
smoothSolver:  Solving for Uy, Initial residual = 0.000646718, Final residual = 5.77869e-05, No Iterations 3
GAMG:  Solving for p, Initial residual = 0.00193693, Final residual = 0.000144549, No Iterations 10
time step continuity errors : sum local = 1.77313e-05, global = -3.8659e-06, cumulative = 0.000305234
smoothSolver:  Solving for omega, Initial residual = 1.53539e-06, Final residual = 1.48061e-07, No Iterations 2
smoothSolver:  Solving for k, Initial residual = 0.000834515, Final residual = 7.94714e-05, No Iterations 3
bounding k, min: 0 max: 0.0881752 average: 0.0249777
smoothSolver:  Solving for ReThetat, Initial residual = 0.00162618, Final residual = 0.000141258, No Iterations 1
smoothSolver:  Solving for gammaInt, Initial residual = 0.00587359, Final residual = 0.00013254, No Iterations 1
ExecutionTime = 2.65 s  ClockTime = 3 s

Time = 41

smoothSolver:  Solving for Ux, Initial residual = 0.000354759, Final residual = 2.67709e-05, No Iterations 5
smoothSolver:  Solving for Uy, Initial residual = 0.000622306, Final residual = 5.69088e-05, No Iterations 3
GAMG:  Solving for p, Initial residual = 0.00177327, Final residual = 0.000173595, No Iterations 8
time step continuity errors : sum local = 2.2231e-05, global = -4.94558e-06, cumulative = 0.000300289
smoothSolver:  Solving for omega, Initial residual = 1.38156e-06, Final residual = 1.3268e-07, No Iterations 2
smoothSolver:  Solving for k, Initial residual = 0.000838284, Final residual = 4.4078e-05, No Iterations 4
bounding k, min: 0 max: 0.0881386 average: 0.0250688
smoothSolver:  Solving for ReThetat, Initial residual = 0.00146923, Final residual = 0.000138036, No Iterations 1
smoothSolver:  Solving for gammaInt, Initial residual = 0.0058425, Final residual = 0.000140626, No Iterations 1
ExecutionTime = 2.71 s  ClockTime = 3 s

Time = 42

smoothSolver:  Solving for Ux, Initial residual = 0.000338262, Final residual = 2.54344e-05, No Iterations 5
smoothSolver:  Solving for Uy, Initial residual = 0.000597734, Final residual = 5.56448e-05, No Iterations 3
GAMG:  Solving for p, Initial residual = 0.00168365, Final residual = 0.00012536, No Iterations 10
time step continuity errors : sum local = 1.65688e-05, global = -3.15592e-06, cumulative = 0.000297133
smoothSolver:  Solving for omega, Initial residual = 1.24213e-06, Final residual = 1.17936e-07, No Iterations 2
smoothSolver:  Solving for k, Initial residual = 0.000867278, Final residual = 4.84801e-05, No Iterations 4
bounding k, min: 0 max: 0.0881022 average: 0.0251743
smoothSolver:  Solving for ReThetat, Initial residual = 0.00130748, Final residual = 6.83322e-05, No Iterations 2
smoothSolver:  Solving for gammaInt, Initial residual = 0.00856321, Final residual = 0.000215712, No Iterations 1
ExecutionTime = 2.77 s  ClockTime = 3 s

Time = 43

smoothSolver:  Solving for Ux, Initial residual = 0.000322829, Final residual = 2.4122e-05, No Iterations 5
smoothSolver:  Solving for Uy, Initial residual = 0.000582638, Final residual = 5.41447e-05, No Iterations 3
GAMG:  Solving for p, Initial residual = 0.0015573, Final residual = 0.000154141, No Iterations 8
time step continuity errors : sum local = 2.0988e-05, global = -4.36839e-06, cumulative = 0.000292764
smoothSolver:  Solving for omega, Initial residual = 1.12726e-06, Final residual = 1.05557e-07, No Iterations 2
smoothSolver:  Solving for k, Initial residual = 0.000937033, Final residual = 5.44212e-05, No Iterations 4
bounding k, min: 0 max: 0.0880661 average: 0.025295
smoothSolver:  Solving for ReThetat, Initial residual = 0.00113705, Final residual = 6.46231e-05, No Iterations 2
smoothSolver:  Solving for gammaInt, Initial residual = 0.00645762, Final residual = 9.6446e-05, No Iterations 1
ExecutionTime = 2.82 s  ClockTime = 3 s

Time = 44

smoothSolver:  Solving for Ux, Initial residual = 0.000307229, Final residual = 2.28805e-05, No Iterations 5
smoothSolver:  Solving for Uy, Initial residual = 0.000563682, Final residual = 5.21043e-05, No Iterations 3
GAMG:  Solving for p, Initial residual = 0.00147205, Final residual = 0.000120965, No Iterations 10
time step continuity errors : sum local = 1.67575e-05, global = -2.99203e-06, cumulative = 0.000289772
smoothSolver:  Solving for omega, Initial residual = 1.03823e-06, Final residual = 9.57007e-08, No Iterations 2
smoothSolver:  Solving for k, Initial residual = 0.000977646, Final residual = 5.93138e-05, No Iterations 4
bounding k, min: 0 max: 0.0880302 average: 0.0254272
smoothSolver:  Solving for ReThetat, Initial residual = 0.000980898, Final residual = 6.1369e-05, No Iterations 2
smoothSolver:  Solving for gammaInt, Initial residual = 0.0064771, Final residual = 0.000173813, No Iterations 1
ExecutionTime = 2.87 s  ClockTime = 3 s

Time = 45

smoothSolver:  Solving for Ux, Initial residual = 0.000293248, Final residual = 2.16614e-05, No Iterations 5
smoothSolver:  Solving for Uy, Initial residual = 0.000551232, Final residual = 4.97643e-05, No Iterations 3
GAMG:  Solving for p, Initial residual = 0.00138263, Final residual = 0.000110707, No Iterations 10
time step continuity errors : sum local = 1.55672e-05, global = -2.78894e-06, cumulative = 0.000286983
smoothSolver:  Solving for omega, Initial residual = 9.44364e-07, Final residual = 8.62904e-08, No Iterations 2
smoothSolver:  Solving for k, Initial residual = 0.00105279, Final residual = 6.59525e-05, No Iterations 4
bounding k, min: 0 max: 0.087995 average: 0.0255762
smoothSolver:  Solving for ReThetat, Initial residual = 0.000830367, Final residual = 5.84416e-05, No Iterations 2
smoothSolver:  Solving for gammaInt, Initial residual = 0.00769896, Final residual = 0.000166336, No Iterations 1
ExecutionTime = 2.93 s  ClockTime = 3 s

Time = 46

smoothSolver:  Solving for Ux, Initial residual = 0.000279174, Final residual = 2.05064e-05, No Iterations 5
smoothSolver:  Solving for Uy, Initial residual = 0.000535562, Final residual = 4.70484e-05, No Iterations 3
GAMG:  Solving for p, Initial residual = 0.00133783, Final residual = 0.000110245, No Iterations 10
time step continuity errors : sum local = 1.56287e-05, global = -2.83385e-06, cumulative = 0.00028415
smoothSolver:  Solving for omega, Initial residual = 8.77069e-07, Final residual = 7.94779e-08, No Iterations 2
smoothSolver:  Solving for k, Initial residual = 0.00113096, Final residual = 7.27319e-05, No Iterations 4
bounding k, min: 0 max: 0.0879609 average: 0.0257418
smoothSolver:  Solving for ReThetat, Initial residual = 0.000696988, Final residual = 5.57638e-05, No Iterations 2
smoothSolver:  Solving for gammaInt, Initial residual = 0.0100458, Final residual = 0.000260396, No Iterations 1
ExecutionTime = 2.98 s  ClockTime = 3 s

Time = 47

smoothSolver:  Solving for Ux, Initial residual = 0.00026639, Final residual = 1.93831e-05, No Iterations 5
smoothSolver:  Solving for Uy, Initial residual = 0.000520334, Final residual = 4.41096e-05, No Iterations 3
GAMG:  Solving for p, Initial residual = 0.0013279, Final residual = 0.000111518, No Iterations 10
time step continuity errors : sum local = 1.58821e-05, global = -2.95992e-06, cumulative = 0.00028119
smoothSolver:  Solving for omega, Initial residual = 8.24223e-07, Final residual = 7.47272e-08, No Iterations 2
smoothSolver:  Solving for k, Initial residual = 0.00125515, Final residual = 8.16535e-05, No Iterations 4
bounding k, min: 0 max: 0.0879274 average: 0.0259254
smoothSolver:  Solving for ReThetat, Initial residual = 0.000595014, Final residual = 5.32706e-05, No Iterations 2
smoothSolver:  Solving for gammaInt, Initial residual = 0.00818647, Final residual = 0.000112799, No Iterations 1
ExecutionTime = 3.04 s  ClockTime = 3 s

Time = 48

smoothSolver:  Solving for Ux, Initial residual = 0.000255048, Final residual = 1.83252e-05, No Iterations 5
smoothSolver:  Solving for Uy, Initial residual = 0.000505094, Final residual = 4.10521e-05, No Iterations 3
GAMG:  Solving for p, Initial residual = 0.00129482, Final residual = 0.0001136, No Iterations 10
time step continuity errors : sum local = 1.62206e-05, global = -2.78343e-06, cumulative = 0.000278406
smoothSolver:  Solving for omega, Initial residual = 8.05727e-07, Final residual = 7.37199e-08, No Iterations 2
smoothSolver:  Solving for k, Initial residual = 0.00132167, Final residual = 8.84626e-05, No Iterations 4
bounding k, min: 0 max: 0.0878946 average: 0.0261199
smoothSolver:  Solving for ReThetat, Initial residual = 0.000531893, Final residual = 5.09223e-05, No Iterations 2
smoothSolver:  Solving for gammaInt, Initial residual = 0.00547602, Final residual = 8.89398e-05, No Iterations 1
ExecutionTime = 3.1 s  ClockTime = 3 s

Time = 49

smoothSolver:  Solving for Ux, Initial residual = 0.000246663, Final residual = 1.73009e-05, No Iterations 5
smoothSolver:  Solving for Uy, Initial residual = 0.000490544, Final residual = 3.79761e-05, No Iterations 3
GAMG:  Solving for p, Initial residual = 0.0012934, Final residual = 0.000109975, No Iterations 10
time step continuity errors : sum local = 1.57115e-05, global = -2.53299e-06, cumulative = 0.000275873
smoothSolver:  Solving for omega, Initial residual = 7.83282e-07, Final residual = 7.39921e-08, No Iterations 2
smoothSolver:  Solving for k, Initial residual = 0.00137226, Final residual = 9.45636e-05, No Iterations 4
bounding k, min: 0 max: 0.0878627 average: 0.0263242
smoothSolver:  Solving for ReThetat, Initial residual = 0.000509757, Final residual = 4.86696e-05, No Iterations 2
smoothSolver:  Solving for gammaInt, Initial residual = 0.00817086, Final residual = 0.000219429, No Iterations 1
ExecutionTime = 3.15 s  ClockTime = 3 s

Time = 50

smoothSolver:  Solving for Ux, Initial residual = 0.000238534, Final residual = 1.63434e-05, No Iterations 5
smoothSolver:  Solving for Uy, Initial residual = 0.000476013, Final residual = 3.49693e-05, No Iterations 3
GAMG:  Solving for p, Initial residual = 0.00125014, Final residual = 0.000106797, No Iterations 10
time step continuity errors : sum local = 1.5253e-05, global = -2.21853e-06, cumulative = 0.000273655
smoothSolver:  Solving for omega, Initial residual = 7.62215e-07, Final residual = 7.55265e-08, No Iterations 2
smoothSolver:  Solving for k, Initial residual = 0.00147807, Final residual = 0.000103246, No Iterations 4
bounding k, min: 0 max: 0.0878319 average: 0.0265468
smoothSolver:  Solving for ReThetat, Initial residual = 0.000529552, Final residual = 4.65542e-05, No Iterations 2
smoothSolver:  Solving for gammaInt, Initial residual = 0.0115384, Final residual = 0.000312869, No Iterations 1
ExecutionTime = 3.21 s  ClockTime = 3 s

Time = 51

smoothSolver:  Solving for Ux, Initial residual = 0.000233352, Final residual = 1.55136e-05, No Iterations 5
smoothSolver:  Solving for Uy, Initial residual = 0.000460852, Final residual = 3.21082e-05, No Iterations 3
GAMG:  Solving for p, Initial residual = 0.00125705, Final residual = 0.000101406, No Iterations 10
time step continuity errors : sum local = 1.4466e-05, global = -1.9936e-06, cumulative = 0.000271661
smoothSolver:  Solving for omega, Initial residual = 7.7307e-07, Final residual = 2.89703e-08, No Iterations 3
smoothSolver:  Solving for k, Initial residual = 0.00162489, Final residual = 0.00011397, No Iterations 4
bounding k, min: 0 max: 0.0878024 average: 0.0267891
smoothSolver:  Solving for ReThetat, Initial residual = 0.000570628, Final residual = 4.44979e-05, No Iterations 2
smoothSolver:  Solving for gammaInt, Initial residual = 0.00899331, Final residual = 0.000137018, No Iterations 1
ExecutionTime = 3.27 s  ClockTime = 3 s

Time = 52

smoothSolver:  Solving for Ux, Initial residual = 0.000232535, Final residual = 1.52097e-05, No Iterations 5
smoothSolver:  Solving for Uy, Initial residual = 0.00044555, Final residual = 2.95024e-05, No Iterations 3
GAMG:  Solving for p, Initial residual = 0.00124578, Final residual = 0.00010053, No Iterations 10
time step continuity errors : sum local = 1.43321e-05, global = -1.87019e-06, cumulative = 0.000269791
smoothSolver:  Solving for omega, Initial residual = 7.69623e-07, Final residual = 3.05163e-08, No Iterations 3
smoothSolver:  Solving for k, Initial residual = 0.00169287, Final residual = 0.00012188, No Iterations 4
bounding k, min: 0 max: 0.0877742 average: 0.0270423
smoothSolver:  Solving for ReThetat, Initial residual = 0.000591096, Final residual = 4.23737e-05, No Iterations 2
smoothSolver:  Solving for gammaInt, Initial residual = 0.00581121, Final residual = 9.18727e-05, No Iterations 1
ExecutionTime = 3.32 s  ClockTime = 3 s

Time = 53

smoothSolver:  Solving for Ux, Initial residual = 0.000232544, Final residual = 1.52509e-05, No Iterations 5
smoothSolver:  Solving for Uy, Initial residual = 0.000430748, Final residual = 2.72049e-05, No Iterations 3
GAMG:  Solving for p, Initial residual = 0.00125251, Final residual = 9.92873e-05, No Iterations 10
time step continuity errors : sum local = 1.4154e-05, global = -1.80371e-06, cumulative = 0.000267987
smoothSolver:  Solving for omega, Initial residual = 8.06831e-07, Final residual = 3.35731e-08, No Iterations 3
smoothSolver:  Solving for k, Initial residual = 0.00172748, Final residual = 0.000128033, No Iterations 4
bounding k, min: 0 max: 0.0877475 average: 0.0273026
smoothSolver:  Solving for ReThetat, Initial residual = 0.000589765, Final residual = 4.03525e-05, No Iterations 2
smoothSolver:  Solving for gammaInt, Initial residual = 0.00727794, Final residual = 0.000204396, No Iterations 1
ExecutionTime = 3.38 s  ClockTime = 3 s

Time = 54

smoothSolver:  Solving for Ux, Initial residual = 0.000232889, Final residual = 1.55616e-05, No Iterations 5
smoothSolver:  Solving for Uy, Initial residual = 0.000416384, Final residual = 2.53035e-05, No Iterations 3
GAMG:  Solving for p, Initial residual = 0.00125712, Final residual = 0.000100824, No Iterations 10
time step continuity errors : sum local = 1.43929e-05, global = -1.80029e-06, cumulative = 0.000266187
smoothSolver:  Solving for omega, Initial residual = 8.32507e-07, Final residual = 3.59487e-08, No Iterations 3
smoothSolver:  Solving for k, Initial residual = 0.00181111, Final residual = 0.000136296, No Iterations 4
bounding k, min: 0 max: 0.0877224 average: 0.0275781
smoothSolver:  Solving for ReThetat, Initial residual = 0.000569142, Final residual = 3.8518e-05, No Iterations 2
smoothSolver:  Solving for gammaInt, Initial residual = 0.011684, Final residual = 0.000341975, No Iterations 1
ExecutionTime = 3.43 s  ClockTime = 3 s

Time = 55

smoothSolver:  Solving for Ux, Initial residual = 0.000235392, Final residual = 1.60229e-05, No Iterations 5
smoothSolver:  Solving for Uy, Initial residual = 0.000402597, Final residual = 2.38816e-05, No Iterations 3
GAMG:  Solving for p, Initial residual = 0.00123125, Final residual = 0.000101554, No Iterations 10
time step continuity errors : sum local = 1.45368e-05, global = -1.83742e-06, cumulative = 0.000264349
smoothSolver:  Solving for omega, Initial residual = 8.72294e-07, Final residual = 3.83035e-08, No Iterations 3
smoothSolver:  Solving for k, Initial residual = 0.00194948, Final residual = 0.000147638, No Iterations 4
bounding k, min: 0 max: 0.0876991 average: 0.027872
smoothSolver:  Solving for ReThetat, Initial residual = 0.000534277, Final residual = 3.6831e-05, No Iterations 2
smoothSolver:  Solving for gammaInt, Initial residual = 0.00886108, Final residual = 0.000160235, No Iterations 1
ExecutionTime = 3.49 s  ClockTime = 3 s

Time = 56

smoothSolver:  Solving for Ux, Initial residual = 0.000240067, Final residual = 1.67079e-05, No Iterations 5
smoothSolver:  Solving for Uy, Initial residual = 0.0003895, Final residual = 2.28228e-05, No Iterations 3
GAMG:  Solving for p, Initial residual = 0.00119945, Final residual = 0.000101983, No Iterations 10
time step continuity errors : sum local = 1.46678e-05, global = -1.79615e-06, cumulative = 0.000262553
smoothSolver:  Solving for omega, Initial residual = 9.22336e-07, Final residual = 4.12629e-08, No Iterations 3
smoothSolver:  Solving for k, Initial residual = 0.00200588, Final residual = 0.000155604, No Iterations 4
bounding k, min: 0 max: 0.0876776 average: 0.0281776
smoothSolver:  Solving for ReThetat, Initial residual = 0.000488115, Final residual = 3.52846e-05, No Iterations 2
smoothSolver:  Solving for gammaInt, Initial residual = 0.00609189, Final residual = 0.000112689, No Iterations 1
ExecutionTime = 3.54 s  ClockTime = 4 s

Time = 57

smoothSolver:  Solving for Ux, Initial residual = 0.000244471, Final residual = 1.73421e-05, No Iterations 5
smoothSolver:  Solving for Uy, Initial residual = 0.000376891, Final residual = 2.20176e-05, No Iterations 3
GAMG:  Solving for p, Initial residual = 0.00122283, Final residual = 0.000100507, No Iterations 10
time step continuity errors : sum local = 1.45528e-05, global = -1.75538e-06, cumulative = 0.000260798
smoothSolver:  Solving for omega, Initial residual = 9.58347e-07, Final residual = 4.32912e-08, No Iterations 3
smoothSolver:  Solving for k, Initial residual = 0.0020291, Final residual = 0.000161041, No Iterations 4
bounding k, min: 0 max: 0.0890974 average: 0.0284907
smoothSolver:  Solving for ReThetat, Initial residual = 0.000437156, Final residual = 3.38906e-05, No Iterations 2
smoothSolver:  Solving for gammaInt, Initial residual = 0.00555564, Final residual = 0.000142019, No Iterations 1
ExecutionTime = 3.6 s  ClockTime = 4 s

Time = 58

smoothSolver:  Solving for Ux, Initial residual = 0.000246151, Final residual = 1.78896e-05, No Iterations 5
smoothSolver:  Solving for Uy, Initial residual = 0.00036484, Final residual = 2.14019e-05, No Iterations 3
GAMG:  Solving for p, Initial residual = 0.00122257, Final residual = 9.88856e-05, No Iterations 10
time step continuity errors : sum local = 1.44479e-05, global = -1.68731e-06, cumulative = 0.000259111
smoothSolver:  Solving for omega, Initial residual = 9.79199e-07, Final residual = 4.4467e-08, No Iterations 3
smoothSolver:  Solving for k, Initial residual = 0.00206338, Final residual = 0.000166885, No Iterations 4
bounding k, min: 0 max: 0.0921693 average: 0.0288114
smoothSolver:  Solving for ReThetat, Initial residual = 0.000383974, Final residual = 3.26527e-05, No Iterations 2
smoothSolver:  Solving for gammaInt, Initial residual = 0.0108707, Final residual = 0.000392379, No Iterations 1
ExecutionTime = 3.66 s  ClockTime = 4 s

Time = 59

smoothSolver:  Solving for Ux, Initial residual = 0.000245703, Final residual = 1.83424e-05, No Iterations 5
smoothSolver:  Solving for Uy, Initial residual = 0.000353373, Final residual = 2.09378e-05, No Iterations 3
GAMG:  Solving for p, Initial residual = 0.0012108, Final residual = 9.77556e-05, No Iterations 10
time step continuity errors : sum local = 1.44418e-05, global = -1.65977e-06, cumulative = 0.000257451
smoothSolver:  Solving for omega, Initial residual = 9.86281e-07, Final residual = 4.53434e-08, No Iterations 3
smoothSolver:  Solving for k, Initial residual = 0.00219403, Final residual = 0.000178282, No Iterations 4
bounding k, min: 0 max: 0.0952315 average: 0.0291474
smoothSolver:  Solving for ReThetat, Initial residual = 0.000331666, Final residual = 3.15536e-05, No Iterations 2
smoothSolver:  Solving for gammaInt, Initial residual = 0.00913249, Final residual = 0.000185704, No Iterations 1
ExecutionTime = 3.72 s  ClockTime = 4 s

Time = 60

smoothSolver:  Solving for Ux, Initial residual = 0.000248664, Final residual = 1.89342e-05, No Iterations 5
smoothSolver:  Solving for Uy, Initial residual = 0.000342976, Final residual = 2.05923e-05, No Iterations 3
GAMG:  Solving for p, Initial residual = 0.00115991, Final residual = 9.79372e-05, No Iterations 10
time step continuity errors : sum local = 1.46611e-05, global = -1.64487e-06, cumulative = 0.000255806
smoothSolver:  Solving for omega, Initial residual = 1.01634e-06, Final residual = 4.69042e-08, No Iterations 3
smoothSolver:  Solving for k, Initial residual = 0.00223396, Final residual = 0.000184868, No Iterations 4
bounding k, min: 0 max: 0.09826 average: 0.029486
smoothSolver:  Solving for ReThetat, Initial residual = 0.000282422, Final residual = 1.83051e-05, No Iterations 3
smoothSolver:  Solving for gammaInt, Initial residual = 0.00550828, Final residual = 0.000106171, No Iterations 1
bounding gammaInt, min: -0.00374389 max: 1.00032 average: 0.821599
ExecutionTime = 3.78 s  ClockTime = 4 s

Time = 61

smoothSolver:  Solving for Ux, Initial residual = 0.000248465, Final residual = 1.94148e-05, No Iterations 5
smoothSolver:  Solving for Uy, Initial residual = 0.00033341, Final residual = 2.02939e-05, No Iterations 3
GAMG:  Solving for p, Initial residual = 0.00111314, Final residual = 9.80108e-05, No Iterations 10
time step continuity errors : sum local = 1.48965e-05, global = -1.63546e-06, cumulative = 0.000254171
smoothSolver:  Solving for omega, Initial residual = 1.03028e-06, Final residual = 4.76987e-08, No Iterations 3
smoothSolver:  Solving for k, Initial residual = 0.00222536, Final residual = 0.000188064, No Iterations 4
bounding k, min: 0 max: 0.101235 average: 0.0298201
smoothSolver:  Solving for ReThetat, Initial residual = 0.000236376, Final residual = 1.76649e-05, No Iterations 3
smoothSolver:  Solving for gammaInt, Initial residual = 0.00478906, Final residual = 0.00011474, No Iterations 1
bounding gammaInt, min: -0.00225653 max: 1.00036 average: 0.822402
ExecutionTime = 3.83 s  ClockTime = 4 s

Time = 62

smoothSolver:  Solving for Ux, Initial residual = 0.000248574, Final residual = 1.98109e-05, No Iterations 5
smoothSolver:  Solving for Uy, Initial residual = 0.000324913, Final residual = 1.99777e-05, No Iterations 3
GAMG:  Solving for p, Initial residual = 0.00106334, Final residual = 9.59227e-05, No Iterations 10
time step continuity errors : sum local = 1.48304e-05, global = -1.645e-06, cumulative = 0.000252526
smoothSolver:  Solving for omega, Initial residual = 1.02409e-06, Final residual = 4.82144e-08, No Iterations 3
smoothSolver:  Solving for k, Initial residual = 0.0022254, Final residual = 0.000191219, No Iterations 4
bounding k, min: 0 max: 0.104107 average: 0.0301549
smoothSolver:  Solving for ReThetat, Initial residual = 0.000196768, Final residual = 1.71025e-05, No Iterations 3
smoothSolver:  Solving for gammaInt, Initial residual = 0.00528733, Final residual = 0.000178717, No Iterations 1
bounding gammaInt, min: -0.00307472 max: 1.00039 average: 0.823455
ExecutionTime = 3.89 s  ClockTime = 4 s

Time = 63

smoothSolver:  Solving for Ux, Initial residual = 0.000248453, Final residual = 2.01364e-05, No Iterations 5
smoothSolver:  Solving for Uy, Initial residual = 0.000316376, Final residual = 1.95721e-05, No Iterations 3
GAMG:  Solving for p, Initial residual = 0.0010326, Final residual = 9.2442e-05, No Iterations 10
time step continuity errors : sum local = 1.4559e-05, global = -1.58532e-06, cumulative = 0.00025094
smoothSolver:  Solving for omega, Initial residual = 1.01641e-06, Final residual = 4.84467e-08, No Iterations 3
smoothSolver:  Solving for k, Initial residual = 0.00224831, Final residual = 0.000195669, No Iterations 4
bounding k, min: 0 max: 0.106901 average: 0.0304931
smoothSolver:  Solving for ReThetat, Initial residual = 0.000164126, Final residual = 1.0491e-05, No Iterations 4
smoothSolver:  Solving for gammaInt, Initial residual = 0.00994808, Final residual = 0.000376692, No Iterations 1
bounding gammaInt, min: -0.00553207 max: 1.00042 average: 0.824703
ExecutionTime = 3.95 s  ClockTime = 4 s

Time = 64

smoothSolver:  Solving for Ux, Initial residual = 0.000249212, Final residual = 2.04607e-05, No Iterations 5
smoothSolver:  Solving for Uy, Initial residual = 0.000308103, Final residual = 1.90824e-05, No Iterations 3
GAMG:  Solving for p, Initial residual = 0.000996913, Final residual = 8.823e-05, No Iterations 10
time step continuity errors : sum local = 1.41758e-05, global = -1.51263e-06, cumulative = 0.000249428
smoothSolver:  Solving for omega, Initial residual = 1.0158e-06, Final residual = 4.88505e-08, No Iterations 3
smoothSolver:  Solving for k, Initial residual = 0.00233594, Final residual = 0.000204732, No Iterations 4
bounding k, min: 0 max: 0.109698 average: 0.0308358
smoothSolver:  Solving for ReThetat, Initial residual = 0.000138022, Final residual = 1.0184e-05, No Iterations 4
smoothSolver:  Solving for gammaInt, Initial residual = 0.00703149, Final residual = 0.00016502, No Iterations 1
bounding gammaInt, min: -0.00747446 max: 1.00045 average: 0.825457
ExecutionTime = 4 s  ClockTime = 4 s

Time = 65

smoothSolver:  Solving for Ux, Initial residual = 0.000251275, Final residual = 2.08896e-05, No Iterations 5
smoothSolver:  Solving for Uy, Initial residual = 0.000299898, Final residual = 1.84766e-05, No Iterations 3
GAMG:  Solving for p, Initial residual = 0.000945765, Final residual = 8.50321e-05, No Iterations 10
time step continuity errors : sum local = 1.39514e-05, global = -1.40846e-06, cumulative = 0.000248019
smoothSolver:  Solving for omega, Initial residual = 1.02514e-06, Final residual = 4.98842e-08, No Iterations 3
smoothSolver:  Solving for k, Initial residual = 0.00234316, Final residual = 0.000208564, No Iterations 4
bounding k, min: 0 max: 0.112456 average: 0.0311745
smoothSolver:  Solving for ReThetat, Initial residual = 0.000120208, Final residual = 9.91105e-06, No Iterations 4
smoothSolver:  Solving for gammaInt, Initial residual = 0.00458086, Final residual = 0.000104748, No Iterations 1
ExecutionTime = 4.07 s  ClockTime = 4 s

Time = 66

smoothSolver:  Solving for Ux, Initial residual = 0.000253224, Final residual = 2.1246e-05, No Iterations 5
smoothSolver:  Solving for Uy, Initial residual = 0.000292444, Final residual = 1.77608e-05, No Iterations 3
GAMG:  Solving for p, Initial residual = 0.000910151, Final residual = 8.15416e-05, No Iterations 10
time step continuity errors : sum local = 1.36753e-05, global = -1.35881e-06, cumulative = 0.00024666
smoothSolver:  Solving for omega, Initial residual = 1.02631e-06, Final residual = 5.04273e-08, No Iterations 3
smoothSolver:  Solving for k, Initial residual = 0.00232419, Final residual = 0.00021039, No Iterations 4
bounding k, min: 0 max: 0.115129 average: 0.0315067
smoothSolver:  Solving for ReThetat, Initial residual = 0.000115334, Final residual = 9.66904e-06, No Iterations 4
smoothSolver:  Solving for gammaInt, Initial residual = 0.00416634, Final residual = 0.00012376, No Iterations 1
ExecutionTime = 4.12 s  ClockTime = 4 s

Time = 67

smoothSolver:  Solving for Ux, Initial residual = 0.000254272, Final residual = 2.1512e-05, No Iterations 5
smoothSolver:  Solving for Uy, Initial residual = 0.000284988, Final residual = 1.69301e-05, No Iterations 3
GAMG:  Solving for p, Initial residual = 0.000872533, Final residual = 7.86699e-05, No Iterations 10
time step continuity errors : sum local = 1.34916e-05, global = -1.32329e-06, cumulative = 0.000245337
smoothSolver:  Solving for omega, Initial residual = 1.01869e-06, Final residual = 5.05755e-08, No Iterations 3
smoothSolver:  Solving for k, Initial residual = 0.00231398, Final residual = 0.000212221, No Iterations 4
bounding k, min: 0 max: 0.117688 average: 0.0318384
smoothSolver:  Solving for ReThetat, Initial residual = 0.000119539, Final residual = 9.45107e-06, No Iterations 4
smoothSolver:  Solving for gammaInt, Initial residual = 0.00362584, Final residual = 0.000100079, No Iterations 1
ExecutionTime = 4.18 s  ClockTime = 4 s

Time = 68

smoothSolver:  Solving for Ux, Initial residual = 0.000255615, Final residual = 2.17384e-05, No Iterations 5
smoothSolver:  Solving for Uy, Initial residual = 0.000277795, Final residual = 1.60264e-05, No Iterations 3
GAMG:  Solving for p, Initial residual = 0.000843765, Final residual = 7.57768e-05, No Iterations 10
time step continuity errors : sum local = 1.3294e-05, global = -1.31096e-06, cumulative = 0.000244026
smoothSolver:  Solving for omega, Initial residual = 1.00695e-06, Final residual = 5.08703e-08, No Iterations 3
smoothSolver:  Solving for k, Initial residual = 0.00229304, Final residual = 0.000213091, No Iterations 4
bounding k, min: 0 max: 0.120122 average: 0.0321677
smoothSolver:  Solving for ReThetat, Initial residual = 0.000123978, Final residual = 9.2542e-06, No Iterations 4
smoothSolver:  Solving for gammaInt, Initial residual = 0.00527926, Final residual = 0.000246143, No Iterations 1
ExecutionTime = 4.23 s  ClockTime = 4 s

Time = 69

smoothSolver:  Solving for Ux, Initial residual = 0.000256549, Final residual = 2.19108e-05, No Iterations 5
smoothSolver:  Solving for Uy, Initial residual = 0.000270777, Final residual = 1.5102e-05, No Iterations 3
GAMG:  Solving for p, Initial residual = 0.000805124, Final residual = 7.39431e-05, No Iterations 10
time step continuity errors : sum local = 1.32716e-05, global = -1.31763e-06, cumulative = 0.000242708
smoothSolver:  Solving for omega, Initial residual = 9.92694e-07, Final residual = 5.10145e-08, No Iterations 3
smoothSolver:  Solving for k, Initial residual = 0.00230954, Final residual = 0.000216707, No Iterations 4
bounding k, min: 0 max: 0.122481 average: 0.0324936
smoothSolver:  Solving for ReThetat, Initial residual = 0.000128017, Final residual = 9.07771e-06, No Iterations 4
smoothSolver:  Solving for gammaInt, Initial residual = 0.008452, Final residual = 0.000312205, No Iterations 1
ExecutionTime = 4.29 s  ClockTime = 4 s

Time = 70

smoothSolver:  Solving for Ux, Initial residual = 0.000257573, Final residual = 2.2118e-05, No Iterations 5
smoothSolver:  Solving for Uy, Initial residual = 0.000264269, Final residual = 1.41851e-05, No Iterations 3
GAMG:  Solving for p, Initial residual = 0.00078103, Final residual = 7.22603e-05, No Iterations 10
time step continuity errors : sum local = 1.3269e-05, global = -1.32584e-06, cumulative = 0.000241383
smoothSolver:  Solving for omega, Initial residual = 9.87772e-07, Final residual = 5.1397e-08, No Iterations 3
smoothSolver:  Solving for k, Initial residual = 0.00234379, Final residual = 0.000221418, No Iterations 4
bounding k, min: 0 max: 0.124826 average: 0.032817
smoothSolver:  Solving for ReThetat, Initial residual = 0.000131469, Final residual = 8.92371e-06, No Iterations 4
smoothSolver:  Solving for gammaInt, Initial residual = 0.00525833, Final residual = 0.000148246, No Iterations 1
ExecutionTime = 4.35 s  ClockTime = 4 s

Time = 71

smoothSolver:  Solving for Ux, Initial residual = 0.00025924, Final residual = 2.23723e-05, No Iterations 5
smoothSolver:  Solving for Uy, Initial residual = 0.000258289, Final residual = 2.53895e-05, No Iterations 2
GAMG:  Solving for p, Initial residual = 0.000793959, Final residual = 6.82095e-05, No Iterations 10
time step continuity errors : sum local = 1.28124e-05, global = -1.26962e-06, cumulative = 0.000240113
smoothSolver:  Solving for omega, Initial residual = 9.89444e-07, Final residual = 5.20834e-08, No Iterations 3
smoothSolver:  Solving for k, Initial residual = 0.00232972, Final residual = 0.000222909, No Iterations 4
bounding k, min: 0 max: 0.127146 average: 0.0331351
smoothSolver:  Solving for ReThetat, Initial residual = 0.000134366, Final residual = 8.79104e-06, No Iterations 4
smoothSolver:  Solving for gammaInt, Initial residual = 0.00389855, Final residual = 0.000130952, No Iterations 1
bounding gammaInt, min: -0.00353056 max: 1.00056 average: 0.83106
ExecutionTime = 4.4 s  ClockTime = 4 s

Time = 72

smoothSolver:  Solving for Ux, Initial residual = 0.000260373, Final residual = 2.2584e-05, No Iterations 5
smoothSolver:  Solving for Uy, Initial residual = 0.00025454, Final residual = 2.45551e-05, No Iterations 2
GAMG:  Solving for p, Initial residual = 0.000728556, Final residual = 6.66735e-05, No Iterations 10
time step continuity errors : sum local = 1.28021e-05, global = -1.28411e-06, cumulative = 0.000238829
smoothSolver:  Solving for omega, Initial residual = 9.89085e-07, Final residual = 5.26609e-08, No Iterations 3
smoothSolver:  Solving for k, Initial residual = 0.00231181, Final residual = 0.00022379, No Iterations 4
bounding k, min: 0 max: 0.129415 average: 0.0334508
smoothSolver:  Solving for ReThetat, Initial residual = 0.000136794, Final residual = 1.34104e-05, No Iterations 3
smoothSolver:  Solving for gammaInt, Initial residual = 0.00361829, Final residual = 0.000123548, No Iterations 1
bounding gammaInt, min: -0.00273449 max: 1.00054 average: 0.831902
ExecutionTime = 4.46 s  ClockTime = 4 s

Time = 73

smoothSolver:  Solving for Ux, Initial residual = 0.000260941, Final residual = 2.27448e-05, No Iterations 5
smoothSolver:  Solving for Uy, Initial residual = 0.000249284, Final residual = 2.35126e-05, No Iterations 2
GAMG:  Solving for p, Initial residual = 0.000709397, Final residual = 6.48933e-05, No Iterations 10
time step continuity errors : sum local = 1.27311e-05, global = -1.27856e-06, cumulative = 0.00023755
smoothSolver:  Solving for omega, Initial residual = 9.86461e-07, Final residual = 5.31378e-08, No Iterations 3
smoothSolver:  Solving for k, Initial residual = 0.00229094, Final residual = 0.000224064, No Iterations 4
bounding k, min: 0 max: 0.132344 average: 0.0337647
smoothSolver:  Solving for ReThetat, Initial residual = 0.000139073, Final residual = 1.3328e-05, No Iterations 3
smoothSolver:  Solving for gammaInt, Initial residual = 0.00208335, Final residual = 5.75598e-05, No Iterations 1
bounding gammaInt, min: -0.00730545 max: 1.00053 average: 0.832285
ExecutionTime = 4.53 s  ClockTime = 5 s

Time = 74

smoothSolver:  Solving for Ux, Initial residual = 0.000261077, Final residual = 2.28644e-05, No Iterations 5
smoothSolver:  Solving for Uy, Initial residual = 0.000243568, Final residual = 2.24479e-05, No Iterations 2
GAMG:  Solving for p, Initial residual = 0.000687628, Final residual = 6.23538e-05, No Iterations 10
time step continuity errors : sum local = 1.24943e-05, global = -1.26028e-06, cumulative = 0.00023629
smoothSolver:  Solving for omega, Initial residual = 9.81945e-07, Final residual = 5.35034e-08, No Iterations 3
smoothSolver:  Solving for k, Initial residual = 0.00224352, Final residual = 0.000222202, No Iterations 4
bounding k, min: 0 max: 0.135275 average: 0.0340704
smoothSolver:  Solving for ReThetat, Initial residual = 0.000141008, Final residual = 1.32626e-05, No Iterations 3
smoothSolver:  Solving for gammaInt, Initial residual = 0.0026259, Final residual = 0.000139643, No Iterations 1
ExecutionTime = 4.58 s  ClockTime = 5 s

Time = 75

smoothSolver:  Solving for Ux, Initial residual = 0.000260615, Final residual = 2.29094e-05, No Iterations 5
smoothSolver:  Solving for Uy, Initial residual = 0.000238204, Final residual = 2.1444e-05, No Iterations 2
GAMG:  Solving for p, Initial residual = 0.000667457, Final residual = 5.97037e-05, No Iterations 10
time step continuity errors : sum local = 1.22122e-05, global = -1.24353e-06, cumulative = 0.000235046
smoothSolver:  Solving for omega, Initial residual = 9.69954e-07, Final residual = 5.35539e-08, No Iterations 3
smoothSolver:  Solving for k, Initial residual = 0.00221435, Final residual = 0.000125817, No Iterations 5
bounding k, min: 0 max: 0.138252 average: 0.0343837
smoothSolver:  Solving for ReThetat, Initial residual = 0.000143009, Final residual = 1.32317e-05, No Iterations 3
smoothSolver:  Solving for gammaInt, Initial residual = 0.00758074, Final residual = 0.000392937, No Iterations 1
ExecutionTime = 4.63 s  ClockTime = 5 s

Time = 76

smoothSolver:  Solving for Ux, Initial residual = 0.000260223, Final residual = 2.29767e-05, No Iterations 5
smoothSolver:  Solving for Uy, Initial residual = 0.000233116, Final residual = 2.05958e-05, No Iterations 2
GAMG:  Solving for p, Initial residual = 0.000654683, Final residual = 5.78694e-05, No Iterations 10
time step continuity errors : sum local = 1.20757e-05, global = -1.23081e-06, cumulative = 0.000233816
smoothSolver:  Solving for omega, Initial residual = 9.6268e-07, Final residual = 5.35868e-08, No Iterations 3
smoothSolver:  Solving for k, Initial residual = 0.00224571, Final residual = 0.000128009, No Iterations 5
bounding k, min: 0 max: 0.141141 average: 0.0346947
smoothSolver:  Solving for ReThetat, Initial residual = 0.000144849, Final residual = 1.32134e-05, No Iterations 3
smoothSolver:  Solving for gammaInt, Initial residual = 0.00550882, Final residual = 0.000198202, No Iterations 1
ExecutionTime = 4.69 s  ClockTime = 5 s

Time = 77

smoothSolver:  Solving for Ux, Initial residual = 0.00026033, Final residual = 2.31028e-05, No Iterations 5
smoothSolver:  Solving for Uy, Initial residual = 0.000228909, Final residual = 1.98861e-05, No Iterations 2
GAMG:  Solving for p, Initial residual = 0.000639033, Final residual = 5.64598e-05, No Iterations 10
time step continuity errors : sum local = 1.20139e-05, global = -1.22248e-06, cumulative = 0.000232593
smoothSolver:  Solving for omega, Initial residual = 9.6258e-07, Final residual = 5.39726e-08, No Iterations 3
smoothSolver:  Solving for k, Initial residual = 0.00222971, Final residual = 0.000128399, No Iterations 5
bounding k, min: 0 max: 0.143892 average: 0.0350008
smoothSolver:  Solving for ReThetat, Initial residual = 0.000146274, Final residual = 1.32037e-05, No Iterations 3
smoothSolver:  Solving for gammaInt, Initial residual = 0.00408161, Final residual = 0.000161081, No Iterations 1
ExecutionTime = 4.75 s  ClockTime = 5 s

Time = 78

smoothSolver:  Solving for Ux, Initial residual = 0.000260327, Final residual = 2.31944e-05, No Iterations 5
smoothSolver:  Solving for Uy, Initial residual = 0.000225273, Final residual = 1.9287e-05, No Iterations 2
GAMG:  Solving for p, Initial residual = 0.000620268, Final residual = 5.51256e-05, No Iterations 10
time step continuity errors : sum local = 1.19544e-05, global = -1.2095e-06, cumulative = 0.000231384
smoothSolver:  Solving for omega, Initial residual = 9.5972e-07, Final residual = 5.43749e-08, No Iterations 3
smoothSolver:  Solving for k, Initial residual = 0.00220529, Final residual = 0.00012831, No Iterations 5
bounding k, min: 0 max: 0.14657 average: 0.0353043
smoothSolver:  Solving for ReThetat, Initial residual = 0.000147396, Final residual = 1.31985e-05, No Iterations 3
smoothSolver:  Solving for gammaInt, Initial residual = 0.00338206, Final residual = 0.000127176, No Iterations 1
bounding gammaInt, min: -0.004938 max: 1.00048 average: 0.836169
ExecutionTime = 4.8 s  ClockTime = 5 s

Time = 79

smoothSolver:  Solving for Ux, Initial residual = 0.000259814, Final residual = 2.32409e-05, No Iterations 5
smoothSolver:  Solving for Uy, Initial residual = 0.000221858, Final residual = 1.87495e-05, No Iterations 2
GAMG:  Solving for p, Initial residual = 0.000603872, Final residual = 5.3808e-05, No Iterations 10
time step continuity errors : sum local = 1.18844e-05, global = -1.19081e-06, cumulative = 0.000230193
smoothSolver:  Solving for omega, Initial residual = 9.53918e-07, Final residual = 5.47463e-08, No Iterations 3
smoothSolver:  Solving for k, Initial residual = 0.00216972, Final residual = 0.00012752, No Iterations 5
bounding k, min: 0 max: 0.149209 average: 0.0356041
smoothSolver:  Solving for ReThetat, Initial residual = 0.000148358, Final residual = 1.31977e-05, No Iterations 3
smoothSolver:  Solving for gammaInt, Initial residual = 0.00182067, Final residual = 6.30777e-05, No Iterations 1
bounding gammaInt, min: -0.000373031 max: 1.00047 average: 0.836548
ExecutionTime = 4.86 s  ClockTime = 5 s

Time = 80

smoothSolver:  Solving for Ux, Initial residual = 0.000258792, Final residual = 2.32354e-05, No Iterations 5
smoothSolver:  Solving for Uy, Initial residual = 0.000218479, Final residual = 1.82709e-05, No Iterations 2
GAMG:  Solving for p, Initial residual = 0.000585974, Final residual = 5.19435e-05, No Iterations 10
[...]
smoothSolver:  Solving for ReThetat, Initial residual = 1.53834e-05, Final residual = 1.29985e-06, No Iterations 6
smoothSolver:  Solving for gammaInt, Initial residual = 7.00715e-06, Final residual = 2.44316e-07, No Iterations 1
ExecutionTime = 14.34 s  ClockTime = 14 s

Time = 250

smoothSolver:  Solving for Ux, Initial residual = 1.29637e-06, Final residual = 8.75234e-08, No Iterations 6
smoothSolver:  Solving for Uy, Initial residual = 1.7866e-06, Final residual = 1.60815e-07, No Iterations 2
GAMG:  Solving for p, Initial residual = 8.02897e-06, Final residual = 6.74671e-07, No Iterations 8
time step continuity errors : sum local = 2.60498e-07, global = -4.4427e-08, cumulative = 0.000147066
smoothSolver:  Solving for omega, Initial residual = 1.11708e-08, Final residual = 4.60954e-09, No Iterations 1
smoothSolver:  Solving for k, Initial residual = 6.10645e-06, Final residual = 4.1655e-07, No Iterations 5
bounding k, min: 0 max: 0.187323 average: 0.0414018
smoothSolver:  Solving for ReThetat, Initial residual = 1.52546e-05, Final residual = 1.29157e-06, No Iterations 6
smoothSolver:  Solving for gammaInt, Initial residual = 7.86954e-06, Final residual = 2.62593e-07, No Iterations 1
ExecutionTime = 14.39 s  ClockTime = 14 s

Time = 251

smoothSolver:  Solving for Ux, Initial residual = 1.26674e-06, Final residual = 8.55982e-08, No Iterations 6
smoothSolver:  Solving for Uy, Initial residual = 1.7716e-06, Final residual = 1.57693e-07, No Iterations 2
GAMG:  Solving for p, Initial residual = 7.45346e-06, Final residual = 9.33826e-07, No Iterations 6
time step continuity errors : sum local = 3.60582e-07, global = -6.72421e-08, cumulative = 0.000146999
smoothSolver:  Solving for omega, Initial residual = 6.61184e-09, Final residual = 6.61184e-09, No Iterations 0
smoothSolver:  Solving for k, Initial residual = 5.90006e-06, Final residual = 4.02567e-07, No Iterations 5
bounding k, min: 0 max: 0.187322 average: 0.0414015
smoothSolver:  Solving for ReThetat, Initial residual = 1.49513e-05, Final residual = 1.28176e-06, No Iterations 6
smoothSolver:  Solving for gammaInt, Initial residual = 7.13473e-06, Final residual = 2.47287e-07, No Iterations 1
ExecutionTime = 14.45 s  ClockTime = 14 s

Time = 252

smoothSolver:  Solving for Ux, Initial residual = 1.222e-06, Final residual = 8.26912e-08, No Iterations 6
smoothSolver:  Solving for Uy, Initial residual = 1.67707e-06, Final residual = 1.51047e-07, No Iterations 2
GAMG:  Solving for p, Initial residual = 7.38808e-06, Final residual = 9.92059e-07, No Iterations 6
time step continuity errors : sum local = 3.83086e-07, global = -7.13045e-08, cumulative = 0.000146928
smoothSolver:  Solving for omega, Initial residual = 7.66087e-09, Final residual = 7.66087e-09, No Iterations 0
smoothSolver:  Solving for k, Initial residual = 5.80326e-06, Final residual = 3.92081e-07, No Iterations 5
bounding k, min: 0 max: 0.187321 average: 0.0414013
smoothSolver:  Solving for ReThetat, Initial residual = 1.48817e-05, Final residual = 1.27237e-06, No Iterations 6
smoothSolver:  Solving for gammaInt, Initial residual = 6.91795e-06, Final residual = 2.40948e-07, No Iterations 1
ExecutionTime = 14.5 s  ClockTime = 15 s

Time = 253

smoothSolver:  Solving for Ux, Initial residual = 1.18046e-06, Final residual = 7.97945e-08, No Iterations 6
smoothSolver:  Solving for Uy, Initial residual = 1.63375e-06, Final residual = 1.47235e-07, No Iterations 2
GAMG:  Solving for p, Initial residual = 7.33369e-06, Final residual = 9.96503e-07, No Iterations 6
time step continuity errors : sum local = 3.84822e-07, global = -7.20435e-08, cumulative = 0.000146856
smoothSolver:  Solving for omega, Initial residual = 8.94051e-09, Final residual = 8.94051e-09, No Iterations 0
smoothSolver:  Solving for k, Initial residual = 5.74842e-06, Final residual = 3.8375e-07, No Iterations 5
bounding k, min: 0 max: 0.18732 average: 0.041401
smoothSolver:  Solving for ReThetat, Initial residual = 1.48558e-05, Final residual = 1.26337e-06, No Iterations 6
smoothSolver:  Solving for gammaInt, Initial residual = 6.76777e-06, Final residual = 2.36335e-07, No Iterations 1
ExecutionTime = 14.54 s  ClockTime = 15 s

Time = 254

smoothSolver:  Solving for Ux, Initial residual = 1.13924e-06, Final residual = 7.69213e-08, No Iterations 6
smoothSolver:  Solving for Uy, Initial residual = 1.59504e-06, Final residual = 1.43594e-07, No Iterations 2
GAMG:  Solving for p, Initial residual = 7.24153e-06, Final residual = 9.87071e-07, No Iterations 6
time step continuity errors : sum local = 3.81198e-07, global = -7.19627e-08, cumulative = 0.000146784
smoothSolver:  Solving for omega, Initial residual = 1.02974e-08, Final residual = 4.40346e-09, No Iterations 1
smoothSolver:  Solving for k, Initial residual = 5.3769e-06, Final residual = 3.67657e-07, No Iterations 5
bounding k, min: 0 max: 0.187319 average: 0.0414008
smoothSolver:  Solving for ReThetat, Initial residual = 1.4727e-05, Final residual = 1.25516e-06, No Iterations 6
smoothSolver:  Solving for gammaInt, Initial residual = 7.57476e-06, Final residual = 2.52389e-07, No Iterations 1
ExecutionTime = 14.6 s  ClockTime = 15 s

Time = 255

smoothSolver:  Solving for Ux, Initial residual = 1.11695e-06, Final residual = 7.54199e-08, No Iterations 6
smoothSolver:  Solving for Uy, Initial residual = 1.55026e-06, Final residual = 1.38148e-07, No Iterations 2
GAMG:  Solving for p, Initial residual = 6.72308e-06, Final residual = 9.6122e-07, No Iterations 6
time step continuity errors : sum local = 3.71231e-07, global = -7.04773e-08, cumulative = 0.000146713
smoothSolver:  Solving for omega, Initial residual = 6.1243e-09, Final residual = 6.1243e-09, No Iterations 0
smoothSolver:  Solving for k, Initial residual = 5.20732e-06, Final residual = 3.56707e-07, No Iterations 5
bounding k, min: 0 max: 0.187318 average: 0.0414005
smoothSolver:  Solving for ReThetat, Initial residual = 1.44428e-05, Final residual = 1.2455e-06, No Iterations 6
smoothSolver:  Solving for gammaInt, Initial residual = 6.90768e-06, Final residual = 2.39511e-07, No Iterations 1
ExecutionTime = 14.65 s  ClockTime = 15 s

Time = 256

smoothSolver:  Solving for Ux, Initial residual = 1.0768e-06, Final residual = 7.28595e-08, No Iterations 6
smoothSolver:  Solving for Uy, Initial residual = 1.4992e-06, Final residual = 1.34757e-07, No Iterations 2
GAMG:  Solving for p, Initial residual = 6.63381e-06, Final residual = 9.37635e-07, No Iterations 6
time step continuity errors : sum local = 3.62139e-07, global = -6.94488e-08, cumulative = 0.000146644
smoothSolver:  Solving for omega, Initial residual = 7.19743e-09, Final residual = 7.19743e-09, No Iterations 0
smoothSolver:  Solving for k, Initial residual = 5.09485e-06, Final residual = 3.45517e-07, No Iterations 5
bounding k, min: 0 max: 0.187318 average: 0.0414002
smoothSolver:  Solving for ReThetat, Initial residual = 1.43675e-05, Final residual = 1.23623e-06, No Iterations 6
smoothSolver:  Solving for gammaInt, Initial residual = 6.71548e-06, Final residual = 2.34664e-07, No Iterations 1
ExecutionTime = 14.7 s  ClockTime = 15 s

Time = 257

smoothSolver:  Solving for Ux, Initial residual = 1.03974e-06, Final residual = 7.0336e-08, No Iterations 6
smoothSolver:  Solving for Uy, Initial residual = 1.44975e-06, Final residual = 1.30904e-07, No Iterations 2
GAMG:  Solving for p, Initial residual = 6.55826e-06, Final residual = 9.19154e-07, No Iterations 6
time step continuity errors : sum local = 3.55016e-07, global = -6.84226e-08, cumulative = 0.000146576
smoothSolver:  Solving for omega, Initial residual = 8.43415e-09, Final residual = 8.43415e-09, No Iterations 0
smoothSolver:  Solving for k, Initial residual = 5.02017e-06, Final residual = 3.36703e-07, No Iterations 5
bounding k, min: 0 max: 0.187317 average: 0.0414
smoothSolver:  Solving for ReThetat, Initial residual = 1.43372e-05, Final residual = 1.22733e-06, No Iterations 6
smoothSolver:  Solving for gammaInt, Initial residual = 6.58551e-06, Final residual = 2.31307e-07, No Iterations 1
ExecutionTime = 14.76 s  ClockTime = 15 s

Time = 258

smoothSolver:  Solving for Ux, Initial residual = 1.00355e-06, Final residual = 6.7845e-08, No Iterations 6
smoothSolver:  Solving for Uy, Initial residual = 1.40509e-06, Final residual = 1.269e-07, No Iterations 2
GAMG:  Solving for p, Initial residual = 6.45717e-06, Final residual = 9.01922e-07, No Iterations 6
time step continuity errors : sum local = 3.48374e-07, global = -6.7134e-08, cumulative = 0.000146508
smoothSolver:  Solving for omega, Initial residual = 9.63384e-09, Final residual = 9.63384e-09, No Iterations 0
smoothSolver:  Solving for k, Initial residual = 4.97506e-06, Final residual = 3.29449e-07, No Iterations 5
bounding k, min: 0 max: 0.187317 average: 0.0413998
smoothSolver:  Solving for ReThetat, Initial residual = 1.43011e-05, Final residual = 1.21874e-06, No Iterations 6
smoothSolver:  Solving for gammaInt, Initial residual = 6.47139e-06, Final residual = 2.28383e-07, No Iterations 1
ExecutionTime = 14.81 s  ClockTime = 15 s

Time = 259

smoothSolver:  Solving for Ux, Initial residual = 9.68057e-07, Final residual = 6.53909e-08, No Iterations 6
smoothSolver:  Solving for Uy, Initial residual = 1.36475e-06, Final residual = 1.22969e-07, No Iterations 2
GAMG:  Solving for p, Initial residual = 6.33605e-06, Final residual = 8.82285e-07, No Iterations 6
time step continuity errors : sum local = 3.40802e-07, global = -6.54945e-08, cumulative = 0.000146443
smoothSolver:  Solving for omega, Initial residual = 1.07909e-08, Final residual = 4.46295e-09, No Iterations 1
smoothSolver:  Solving for k, Initial residual = 4.62047e-06, Final residual = 3.16692e-07, No Iterations 5
bounding k, min: 0 max: 0.187317 average: 0.0413995
smoothSolver:  Solving for ReThetat, Initial residual = 1.41501e-05, Final residual = 1.21089e-06, No Iterations 6
smoothSolver:  Solving for gammaInt, Initial residual = 7.30823e-06, Final residual = 2.44267e-07, No Iterations 1
ExecutionTime = 14.86 s  ClockTime = 15 s

Time = 260

smoothSolver:  Solving for Ux, Initial residual = 9.53452e-07, Final residual = 6.43098e-08, No Iterations 6
smoothSolver:  Solving for Uy, Initial residual = 1.32192e-06, Final residual = 1.17688e-07, No Iterations 2
GAMG:  Solving for p, Initial residual = 5.79688e-06, Final residual = 8.48865e-07, No Iterations 6
time step continuity errors : sum local = 3.27904e-07, global = -6.25948e-08, cumulative = 0.00014638
smoothSolver:  Solving for omega, Initial residual = 6.19845e-09, Final residual = 6.19845e-09, No Iterations 0
smoothSolver:  Solving for k, Initial residual = 4.50395e-06, Final residual = 3.09951e-07, No Iterations 5
bounding k, min: 0 max: 0.187317 average: 0.0413993
smoothSolver:  Solving for ReThetat, Initial residual = 1.38505e-05, Final residual = 1.20146e-06, No Iterations 6
smoothSolver:  Solving for gammaInt, Initial residual = 6.65939e-06, Final residual = 2.327e-07, No Iterations 1
ExecutionTime = 14.91 s  ClockTime = 15 s

Time = 261

smoothSolver:  Solving for Ux, Initial residual = 9.18045e-07, Final residual = 6.21595e-08, No Iterations 6
smoothSolver:  Solving for Uy, Initial residual = 1.2743e-06, Final residual = 1.14607e-07, No Iterations 2
GAMG:  Solving for p, Initial residual = 5.6965e-06, Final residual = 8.17869e-07, No Iterations 6
time step continuity errors : sum local = 3.15942e-07, global = -6.02314e-08, cumulative = 0.00014632
smoothSolver:  Solving for omega, Initial residual = 6.88915e-09, Final residual = 6.88915e-09, No Iterations 0
smoothSolver:  Solving for k, Initial residual = 4.37586e-06, Final residual = 2.98307e-07, No Iterations 5
bounding k, min: 0 max: 0.187318 average: 0.041399
smoothSolver:  Solving for ReThetat, Initial residual = 1.37598e-05, Final residual = 1.19238e-06, No Iterations 6
smoothSolver:  Solving for gammaInt, Initial residual = 6.48666e-06, Final residual = 2.29008e-07, No Iterations 1
ExecutionTime = 14.97 s  ClockTime = 15 s

Time = 262

smoothSolver:  Solving for Ux, Initial residual = 8.86833e-07, Final residual = 6.00412e-08, No Iterations 6
smoothSolver:  Solving for Uy, Initial residual = 1.22868e-06, Final residual = 1.11144e-07, No Iterations 2
GAMG:  Solving for p, Initial residual = 5.63029e-06, Final residual = 7.93816e-07, No Iterations 6
time step continuity errors : sum local = 3.06661e-07, global = -5.81723e-08, cumulative = 0.000146262
smoothSolver:  Solving for omega, Initial residual = 7.71542e-09, Final residual = 7.71542e-09, No Iterations 0
smoothSolver:  Solving for k, Initial residual = 4.28779e-06, Final residual = 2.89022e-07, No Iterations 5
bounding k, min: 0 max: 0.187318 average: 0.0413988
smoothSolver:  Solving for ReThetat, Initial residual = 1.37267e-05, Final residual = 1.18363e-06, No Iterations 6
smoothSolver:  Solving for gammaInt, Initial residual = 6.37619e-06, Final residual = 2.26702e-07, No Iterations 1
ExecutionTime = 15.01 s  ClockTime = 15 s

Time = 263

smoothSolver:  Solving for Ux, Initial residual = 8.5649e-07, Final residual = 5.79471e-08, No Iterations 6
smoothSolver:  Solving for Uy, Initial residual = 1.188e-06, Final residual = 1.07618e-07, No Iterations 2
GAMG:  Solving for p, Initial residual = 5.54526e-06, Final residual = 7.73585e-07, No Iterations 6
time step continuity errors : sum local = 2.98855e-07, global = -5.62386e-08, cumulative = 0.000146206
smoothSolver:  Solving for omega, Initial residual = 8.67839e-09, Final residual = 8.67839e-09, No Iterations 0
smoothSolver:  Solving for k, Initial residual = 4.22752e-06, Final residual = 2.81482e-07, No Iterations 5
bounding k, min: 0 max: 0.187319 average: 0.0413986
smoothSolver:  Solving for ReThetat, Initial residual = 1.36907e-05, Final residual = 1.17518e-06, No Iterations 6
smoothSolver:  Solving for gammaInt, Initial residual = 6.27977e-06, Final residual = 2.24703e-07, No Iterations 1
ExecutionTime = 15.06 s  ClockTime = 15 s

Time = 264

smoothSolver:  Solving for Ux, Initial residual = 8.26835e-07, Final residual = 5.58831e-08, No Iterations 6
smoothSolver:  Solving for Uy, Initial residual = 1.1518e-06, Final residual = 1.04205e-07, No Iterations 2
GAMG:  Solving for p, Initial residual = 5.44266e-06, Final residual = 7.53307e-07, No Iterations 6
time step continuity errors : sum local = 2.9103e-07, global = -5.43173e-08, cumulative = 0.000146151
smoothSolver:  Solving for omega, Initial residual = 9.65118e-09, Final residual = 9.65118e-09, No Iterations 0
smoothSolver:  Solving for k, Initial residual = 4.1904e-06, Final residual = 2.75729e-07, No Iterations 5
bounding k, min: 0 max: 0.18732 average: 0.0413984
smoothSolver:  Solving for ReThetat, Initial residual = 1.36399e-05, Final residual = 1.16696e-06, No Iterations 6
smoothSolver:  Solving for gammaInt, Initial residual = 6.18798e-06, Final residual = 2.22647e-07, No Iterations 1
ExecutionTime = 15.11 s  ClockTime = 15 s

Time = 265

smoothSolver:  Solving for Ux, Initial residual = 7.97773e-07, Final residual = 5.38682e-08, No Iterations 6
smoothSolver:  Solving for Uy, Initial residual = 1.11837e-06, Final residual = 1.00887e-07, No Iterations 2
GAMG:  Solving for p, Initial residual = 5.3257e-06, Final residual = 7.31578e-07, No Iterations 6
time step continuity errors : sum local = 2.82643e-07, global = -5.23981e-08, cumulative = 0.000146099
smoothSolver:  Solving for omega, Initial residual = 1.05901e-08, Final residual = 4.45113e-09, No Iterations 1
smoothSolver:  Solving for k, Initial residual = 3.88757e-06, Final residual = 2.67418e-07, No Iterations 5
bounding k, min: 0 max: 0.187321 average: 0.0413982
smoothSolver:  Solving for ReThetat, Initial residual = 1.3472e-05, Final residual = 1.15942e-06, No Iterations 6
smoothSolver:  Solving for gammaInt, Initial residual = 7.07188e-06, Final residual = 2.39702e-07, No Iterations 1
ExecutionTime = 15.17 s  ClockTime = 15 s

Time = 266

smoothSolver:  Solving for Ux, Initial residual = 7.92666e-07, Final residual = 5.32312e-08, No Iterations 6
smoothSolver:  Solving for Uy, Initial residual = 1.08188e-06, Final residual = 9.61915e-08, No Iterations 2
GAMG:  Solving for p, Initial residual = 4.80048e-06, Final residual = 6.97758e-07, No Iterations 6
time step continuity errors : sum local = 2.69584e-07, global = -4.95144e-08, cumulative = 0.00014605
smoothSolver:  Solving for omega, Initial residual = 5.979e-09, Final residual = 5.979e-09, No Iterations 0
smoothSolver:  Solving for k, Initial residual = 3.85093e-06, Final residual = 2.66227e-07, No Iterations 5
bounding k, min: 0 max: 0.187322 average: 0.0413979
smoothSolver:  Solving for ReThetat, Initial residual = 1.31891e-05, Final residual = 1.15023e-06, No Iterations 6
smoothSolver:  Solving for gammaInt, Initial residual = 6.42277e-06, Final residual = 2.28409e-07, No Iterations 1
ExecutionTime = 15.22 s  ClockTime = 15 s

Time = 267

smoothSolver:  Solving for Ux, Initial residual = 7.60949e-07, Final residual = 5.14939e-08, No Iterations 6
smoothSolver:  Solving for Uy, Initial residual = 1.04057e-06, Final residual = 9.36765e-08, No Iterations 2
GAMG:  Solving for p, Initial residual = 4.71443e-06, Final residual = 6.69335e-07, No Iterations 6
time step continuity errors : sum local = 2.58609e-07, global = -4.7409e-08, cumulative = 0.000146002
smoothSolver:  Solving for omega, Initial residual = 6.51008e-09, Final residual = 6.51008e-09, No Iterations 0
smoothSolver:  Solving for k, Initial residual = 3.69429e-06, Final residual = 2.53566e-07, No Iterations 5
bounding k, min: 0 max: 0.187324 average: 0.0413977
smoothSolver:  Solving for ReThetat, Initial residual = 1.30755e-05, Final residual = 1.14135e-06, No Iterations 6
smoothSolver:  Solving for gammaInt, Initial residual = 6.2681e-06, Final residual = 2.25593e-07, No Iterations 1
ExecutionTime = 15.28 s  ClockTime = 15 s

Time = 268

smoothSolver:  Solving for Ux, Initial residual = 7.35222e-07, Final residual = 4.97783e-08, No Iterations 6
smoothSolver:  Solving for Uy, Initial residual = 1.00144e-06, Final residual = 9.08243e-08, No Iterations 2
GAMG:  Solving for p, Initial residual = 4.67169e-06, Final residual = 6.50673e-07, No Iterations 6
time step continuity errors : sum local = 2.51405e-07, global = -4.58945e-08, cumulative = 0.000145956
smoothSolver:  Solving for omega, Initial residual = 7.17014e-09, Final residual = 7.17014e-09, No Iterations 0
smoothSolver:  Solving for k, Initial residual = 3.58882e-06, Final residual = 2.43706e-07, No Iterations 5
bounding k, min: 0 max: 0.187325 average: 0.0413974
smoothSolver:  Solving for ReThetat, Initial residual = 1.30321e-05, Final residual = 1.13279e-06, No Iterations 6
smoothSolver:  Solving for gammaInt, Initial residual = 6.17051e-06, Final residual = 2.23923e-07, No Iterations 1
ExecutionTime = 15.32 s  ClockTime = 15 s

Time = 269

smoothSolver:  Solving for Ux, Initial residual = 7.10817e-07, Final residual = 4.80784e-08, No Iterations 6
smoothSolver:  Solving for Uy, Initial residual = 9.67301e-07, Final residual = 8.7919e-08, No Iterations 2
GAMG:  Solving for p, Initial residual = 4.61278e-06, Final residual = 9.86146e-07, No Iterations 4
time step continuity errors : sum local = 3.81033e-07, global = -8.70734e-08, cumulative = 0.000145869
smoothSolver:  Solving for omega, Initial residual = 7.97232e-09, Final residual = 7.97232e-09, No Iterations 0
smoothSolver:  Solving for k, Initial residual = 3.50998e-06, Final residual = 2.35624e-07, No Iterations 5
bounding k, min: 0 max: 0.187326 average: 0.0413972
smoothSolver:  Solving for ReThetat, Initial residual = 1.29888e-05, Final residual = 1.12451e-06, No Iterations 6
smoothSolver:  Solving for gammaInt, Initial residual = 6.09067e-06, Final residual = 2.22702e-07, No Iterations 1
ExecutionTime = 15.37 s  ClockTime = 15 s


SIMPLE solution converged in 269 iterations

wallShearStress wallShearStress write:
    writing field wallShearStress
    min/max(plate) = (-1.80479 -1.68599 -1.64571e-20), (0.0467748 0.00130119 1.76987e-20)
End

